ELEMENTS
C H N O AR 
HE NE 
END
SPECIES
! CH2COOH 

! !\SUBMECH: \FALSE-SPECIES !\BOYANG
!     iCO2 
!     cCO2 
!     iH2O 
!     cH2O
!     !\ENDSUBMECH: \FALSE-SPECIES

!\SUBMECH: \INERT 
    AR        
    HE  
    N2
    !\ENDSUBMECH: \INERT 

!\SUBMECH: \H2+O2 
    H              
    H2             
    O             
    O2             
    OH   
    H2O                        
    HO2           
    H2O2           
    !\ENDSUBMECH: \H2+O2 

!\SUBMECH: \H2+O3+EXCITED
    OX   
    OHX   
    O2X   
    O3
    !\ENDSUBMECH: \H2+O3+EXCITED

!\SUBMECH: \CO 
    CO             
    CO2 
    HOCO
    HCO
    !\ENDSUBMECH: \CO  

CH4 CH3 
CH2 CH2(S) C CH CHV 
CH3O2H CH3O2 CH2O2H CH3OH CH3O 
CH2OH CH2O HCOH HOCH2O HOCHO 
C2H6 C2H5 C2H5O2 C2H4 C2H3 
CHOCHO C2H3OOH C2H3OO CHCHO C2H2 
C2H H2CC C2H5OH C2H5O CH2CH2OH 
O2C2H4OH C2H4O2H C2H4O1-2 C2H3O1-2 CH3CHO 
CH3CO CH2CHO O2CH2CHO HO2CH2CO C2H3OH 
CH2CO HCCO CH3CO3H CH3CO3 CH3CO2 
CH3OCH3 C3H8 IC3H7 NC3H7 NC3H7O2 
IC3H7O2 C3H6OOH1-2 C3H6OOH1-3 C3H6OOH2-1 C3H5-1E-2OOH 
C3H6O1-2 C3H6O1-3 C3H5-SOOH C3H6 C3H5-A 
C3H5-S C3H5-T CH3CHCHO CH3CHCO C3H5O 
CH2CHOCH2 AC3H5OOH C3H4-P C3H4-A C3H3 
C3H2 H2CCC(S) C3H2(S) PC3H4OH-2 SC3H4OH 
C3H3O NC3H7O CH2CCH2OH C3H6OH2-1 TC3H6OH 
IC3H7O IC3H5OH CH3COCH3 CH3COCH2 CH3COCH2O 
C2H3CHO C2H3CO C2H5CHO C2H5CO CH2CH2CHO 
C4H10 PC4H9 SC4H9 PC4H9O2 SC4H9O2 
C4H8OOH1-2 C4H8OOH1-3 C4H8OOH1-4 C4H8OOH2-1 C4H8O1-2 
C4H8O1-3 C4H8O1-4 C4H8OOH1-3O2 C4H8OOH1-4O2 C4H72-1,3OOH 
C4H72-1,4OOH C4H7O1-2OOH-3 C4H7O2-3OOH-1 C4H72-1OOH NC4KET13 
C4H71-3OOH C4H71-4OOH C4H71-O IC4H10 IC4H9 
TC4H9 TC4H9O IC3H7CHO SC4H7OH-I IC4H6OH 
IC3H7CO IC3H6CHO TC3H6CHO IC3H5CHO IC3H6CO 
IC3H5CO IC3H4CHO-A IC4H8O IC4H9O2 TC4H9O2 
IC4H8O2H-I IC4H8O2H-T TC4H8O2H-I CC4H8O IC4H8OOH-IO2 
IC4KETII TIC4H7Q2-I IC4H7OOH IC4H8 IC4H7 
IC4H7-I1 IC4H7O2 IC4H6OOH-I CCYCCOOC-T1 CVCYCCOC 
CCYC2OCO IC4H7O IC3H5OCH2 C4H8-1 C4H71-1 
C4H71-2 C4H71-3 C4H71-4 C4H6-1 SC3H5CHO 
SC3H5CO AC3H5OCH2 C4H7O1-4 C4H7O2-1 C4H71-1O2 
C4H71-2O2 C4H71-4O2 C4H8-2 C4H72-2 C4H72-2O2 
C4H64,2-1OH C4H6 C4H5-I C4H5-N C4H5-2 
C4H4 C4H3-I C4H3-N C4H2 CH2CHCHCHO 
C3H3CH2OOH C3H3CH2O C3H3CHO C2H3CHOHCH2 C4H51,3OH2 
C2H3CHOCH2 C4H612 H2C4O NC3H7CHO NC3H7CO 
C3H6CHO-3 C2H5COCH2 CH2CH2COCH3 CH3CHCOCH3 C2H3COCH3 
C2H5CHCO IC4H6Q2-II C5H10-1 C5H10-2 C5H81-3 
C5H91-3 C5H91-4 C5H91-5 C5H92-4 C5H92-5 
CC5H10 CC5H9-A CC5H9-B AC5H10 AC5H9-C 
AC5H9-D B13DE2M B13DE2MJ B12DE3M C6H101-5 
C6H9-A L-C6H4 C-C6H4 A1 A1- 
A1OO A1OH A1O C6H4OH OC6H4OH 
O-C6H4O2 P-C6H4O2 CY13PD CY13PD5J C#CCVCCJ 
C5H7 CVCCJCVC CVCCVCCJ CPDJONE OC5H7O 
eC7H6 C7H5 C9H8 C9H7CH3 C5H5CH3 
C9H7 C9H6O A2 A2O-1 FLUORENE 
CH3CHOH CH2CH2OH-2O2 CH2CH2O-2OOH CY(CCO)OH CH3CHOH-1O2 
NC5H12 C5H11-1 C5H11-2 C5H11-3 C5H11O2-1 
C5H11O2-2 C5H10OOH1-2 C5H10OOH1-3 C5H10OOH1-4 C5H10OOH1-5 
C5H10OOH2-4 C5H10O1-4 C5H10OOH1-3O2 C5H10OOH1-4O2 C5H10OOH1-5O2 
C5H92-1,3OOH C5H92-1,4OOH C5H92-1,5OOH C5H92-3,5OOH C5H91-3OOH 
C5H91-4OOH C5H91-5OOH C5H92-1OOH C5H9O1-2OOH-4 C5H9O2-3OOH-1 
C5H9O2-3OOH-5 AC5H11 BC5H11 AC5H10OOH-B A-BC5H10O 
NEOC5H12 NEOC5H11 NEOC5H11O2 NEOC5H10OOH NEO-C5H10O 
NEOC5H10OOH-O2 NEOC5H9Q2 NEOC5KET NEOC5H9O-OOH 
NC3H7COCH2 NC6H14 C6H13-1 C6H13-2 C6H13-3 
C6H13O2-1 C6H13O2-2 C6H13O2-3 C6H12OOH2-4 C6H12OOH2-5 
C6H12OOH3-5 C6H12O1-3 C6H12OOH2-4O2 C6H12OOH2-5O2 C6H11-1D5OOH 
C5H91-1 PC4H9CO C6H12-1 C6H12-2 C6H12-3 
C6H111-3 C6H111-4 C6H111-5 C6H111-6 C6H112-5 
C6H112-6 PC4H9CHO C6H10D13 NC7H16 C7H15-1 
C7H15-2 C7H15-3 C7H15-4 C7H15OOH-3 C7H15-1O2 
C7H15-2O2 C7H15-3O2 C7H15-4O2 C7H15-3O C7H14OOH1-3 
C7H14OOH1-4 C7H14OOH2-4 C7H14OOH2-5 C7H14OOH3-1 C7H14OOH3-5 
C7H14OOH3-6 C7H14OOH4-2 C7H14O1-3 C7H14O1-4 C7H14O2-4 
C7H14O2-5 C7H14OOH1-3O2 C7H14OOH2-4O2 C7H14OOH2-5O2 C7H14OOH3-5O2 
C7H14OOH3-6O2 C7H13Q25-3 C7H13Q25-4 C7KET13 C7KET24 
C7KET35 C7H13-1D5OOH C7H13-2D1OOH C7H13-2D5OOH C7H13-2D6OOH 
C7H13-3D6OOH C7KET13O C7KET24O C7KET35O C7H14-1 
C7H14-2 C7H14-3 C7H131-3 C7H131-6 C7H132-4 
C7H132-5 C7H133-1 C7H133-5 C7H133-6 C7H13-3D5O 
A1CH3 BC6H12 CC6H12 CC6H11-B YC7H15 
XC7H14 YC7H14 XC7H13-Z YC7H13-Y2 YC7H15O2 
YC7H14OOH-Y2 ACC6H10 ACC6H9-A NEOC5H11CHO NEOC7H16 
NC7H15 PC7H15 OC7H14 PC7H14 PC7H15O2 
IC8H18 AC8H17 BC8H17 CC8H17 DC8H17 
IC8H16 JC8H16 AC8H17O2 BC8H17O2 CC8H17O2 
DC8H17O2 AC8H16OOH-B AC8H16OOH-C BC8H16OOH-A BC8H16OOH-D 
DC8H16OOH-D DC8H16OOH-B IC8ETERAB IC8ETERBD IC8ETERDD 
DMPD13 DMPD13-E MPT124 MPT124J OC7H13OOH-Q 
OC7H13O-Q A1CH2 IC5H9 C4H7O NC4H9CHO 
NC4H9CO C7H13O1-3 C7H13O3-5 C7H15O2-1 C7H15O2-2 
C7H15O2-3 C7H15O2-4 C4H7CHO1-4 C4H7OOH1-4 C5H9OOH1-4 
C5H9O1-4 C5H9OOH1-5 C5H9O1-5 C6H11OOH1-4 C6H11O1-4 
C6H11OOH1-5 C6H11O1-5 C6H101-3 C6H101-4 C6H102-4 
ETES1 C6H112O2-5 C6H102OOH5-4 C5H91O2-3 C5H91O2-5 
C5H81OOH4-5 C5H92O2-4 AC6H13 BC6H13 CC6H13 
EC6H13 AC6H12 DC6H12 AC6H11-C AC6H11-D 
DC6H11-B DC6H11-C CC6H11O-B BC6H13O2 C7H16-24 
XC7H15 XC7H13-X1 XC7H13-X2 YC7H13-X2 XC7H13O-Z 
XC7H15O2 YC7H14OOH-Z ACC6H9-D NEOC6H14 NEOC6H12 
NEOC6H11 TC4H9CO NEOC5H11CO TC4H9CHCHO TC4H8CH2CHO 
C4H7CHO2-2 C4H7CO2-2 C4H6CHO2-24 IC3H6CHCHO OC7H15 
QC7H15 OC7H13-N PC7H13-N PC7H13-O PC7H13O-O 
NC7H15O2 OC7H15O2 QC7H15O2 OC7H14OOH-P O-PC7H14O 
IC8KETDD HC6H12CHO XC7H13O-X1 YC7H13OOH-X1 YC7H13O-X1 
XC7H13OOH-Z PC7H13OOH-O CC6H11-D DC6H11-D IC3H6CHCOCH2 
NC4H3 OC6H4CH3 HOC6H4CH3 HOC6H4CH2 HOC6H4CH2OO 
HOC6H4CH2O OXCCXCCJXO C5H5-C5H5 A1C2H3 CXCC(C#C)XC 
CYPDONE CYC5H4OH CXCCXCXO CJXCCXCXO OXCCXCCXO 
OXCCXCCJCXO A1CH2OO A1CH2OOH A1CH2O A1CH2OH 
C6H5CHOH A1CHO HOC6H4CH2OOH HOC6H4CHO CXCCXCCJ 
CYC5H7U1 CJXCCXO HCOHCO CPDOOH CXOCCCJCXO 
CXOCCCJXO CXOCCCXO C14H14 C14H13 STILBEN 
XYLENE CPDJCH3 C6H4CH3 A1CO A1C2H5 
O2C6H4CH3 RODC6J(C)DO OCCXCCXCJC C5H4 C5H3 
o-C6H4 CJCXCC#C CR1 C14H13OO A1CHCH 
A3 A1CH2CH2 A1CHCH3 cC5H4 PC6H4CH3 
cC7H7 C5H5CH2-1 C7H6 C6H4C2H3 C8H6O 
C9H9-1 C9H10 CH2A1C2H3 CH3A1C2H3 A2T1 
A2O-2 A2OH-1 A2OH-2 P2- 
A2C2HB C13H9 C13H12 C13H11 C14H12OOH 
FLTHN C18H12 DIBZFUR 
END

REACTIONS MOLES CAL/MOLE

!\SUBMECH: \H2+O2 
!\SUBMECHCMNT: modified based KEROMNES2013 and ARAMCO3.

!\RXN: \H+O2=O+OH !\BOYANG 
    !\SOURCE: KEROMNES2013 !\REF: HONG ET AL., PROC. COMBUST.INST. 33(1) (2011) 309–316. ; WANG ET AL. J. PHYS. CHEM. A 121(45) (2017) 8561-8568 
    H+O2=O+OH    1.04E14 0.0 1.5286E4
    !\BOYANG !\CMNT: ignored because it agrees very well with Hong et al. 2011 over the valid T range.
    !\CMNT: VALID FOR 1428–-1685 K, UNCERTAINTY = 10%
    !\REF: WANG ET AL. J. PHYS. CHEM. A 121(45) (2017) 8561-8568 
    !H+O2=O+OH    8.04E13 0.0 1.4646E4
    !\ENDRXN: \H+O2=O+OH=O+OH 

!\RXN: \H2+O=H+OH !\BOYANG

    !\BOYANG !\CMNT: COMBINED FIT OF BAULCH ET AL. AND NAGUYUEN & STANTON.
    !\REF: ( 200-1600 K) NAGUYUEN & STANTON. J. PHYS. CHEM. A 118(27) (2014) 4918-4928
    !\REF: (1700-3600 K) BAULCH ET AL. J. PHYS. CHEM. REF. DATA 34 (2005) 757-1397
    H2+O=H+OH    8.843E5 2.335 7.058E3
        DUP
    H2+O=H+OH    3.149E46 -12.972 1.146E4
        DUP

    !\SOURCE: KEROMNES2013 !\REF: SUTHERLAND ET AL., 21ST SYMPOSIUM, P. 929 (1986)
    !H2+O=H+OH    5.08E4 2.67 6.292E3

    !\SOURCE: BURKE2012 !\REF: BAULCH ET AL. J. PHYS. CHEM. REF. DATA 34 (2005) 757-1397
    !\CMNT: VALID FOR 300-3500 K !\CMNT: AGREE WITH ALL MEASUREMENTS VERY WELL.
    !H2+O=H+OH    3.82E+12 0.00 7.948E+3
    !   DUP
    !H2+O=H+OH    8.79E+14 0.00 1.917E+4
    !   DUP

    !\ENDRXN: \H2+O=H+OH 

!\RXN: \H2+OH=H+H2O

    !\CMNT: LOWER THAN EXP AT HIGH T. 
    !\SOURCE: KEROMNES2013 !\REF: LAM ET AL. (STANFORD) SUBMITTED TO IJCK (2012)
    !H2+OH=H+H2O    4.38E13 0.0 6.99E3

    !\CMNT: KONNOV2018 = BURKE2012 = LI2004 = HONG2011
    !\SOURCE: KONNOV2018 !\REF: BAULCH ET AL. J. PHYS. CHEM. REF. DATA 34 (2005) 757-1397
    H2+OH=H2O+H    2.14E8 1.52 3.45E3 
    !!\SOURCE: BURKE2012 !\REF: MICHAEL & SUTHERLAND. J. PHYS. CHEM. 92 (1988) 3853-3857
    !H2+OH=H2O+H    2.16E+08  1.51  3430.0 
    !!\SOURCE: HONG2011 !\REF: BAULCH ET AL. J. PHYS. CHEM. REF. DATA 34 (2005) 757-1397
    !H2+OH=H2O+H    2.17E+08  1.52  3457.0 

    !\BOYANG !\CMNT: HIGHER THAN EXP AT HIGH T.
    !\REF: MEISNER & KASTNER. J. Chem. Phys. 144, 174303 (2016); J. Chem. Phys. 147, 049903 (2017)
    !H2+OH=H2O+H    1.0075E+06  2.1863  2.3225E+03  
    !   DUP
    !H2+OH=H2O+H    4.5157E-03  4.4531  -3.7552E+02
    !   DUP

    !\ENDRXN: \H2+OH=H+H2O

!\RXN: \O+H2O=OH+OH !\BOYANG

    !\SOURCE: ARAMCO3
    !O+H2O=OH+OH    6.7E7 1.704 1.49868E4

    !\SOURCE: KEROMNES2013 !\REF:SUTHERLAND ET AL., 23RD SYMPOSIUM, P. 51 (1990)
    !O+H2O<=>OH+OH                         2.97E+06      2.02         1.340E+04 

    !\SOURCE: KONNOV2018 !\REF: Altinay & Macdonald. J. Phys. Chem. A 118 (2014) 38-54  !\REF: Nguyen & Stanton. J. Phys. Chem. A 117 (2013) 2678-2686
    OH+OH=H2O+O    2.668E6 1.82 -1.647E3

    !\ENDRXN: \O+H2O=OH+OH

!\RXN: \H+H+M=H2+M 

    !\SOURCE: ARAMCO3 !\REF:TSANG AND HAMPSON, J. PHYS. CHEM. REF. DATA, 15:1087 (1986)
    H2+M=H+H+M    4.577E19 -1.4 1.044E5
        H2/2.5/
        H2O/12.0/
        CO/1.9/
        CO2/3.8/
        HE/0.83/
        CH4/2.0/
        C2H6/3.0/
        ! cCO2/3.8/    !\BOYANG
        ! cH2O/12.0/   !\BOYANG

    !\SOURCE: KONNOV2018 !\REF: Cohen & Westberg. J. Phys. Chem. Ref. Data 12 (1983) 531
    !H+H+M=H2+M                     7.000E+17     -1.0         0.0
    !   H2/0.0/ 
    !   N2/0.0/ 
    !   H/0.0/ 
    !   H2O/14.3/ 
    !   CO/3.0/ 
    !   CO2/3.0/ 
    !   cCO2/3.0/    !\BOYANG
    !   cH2O/14.3/   !\BOYANG
    !H+H+H2=H2+H2                   1.000E+17     -0.6         0.0 
    !H+H+N2=H2+N2                   5.400E+18     -1.3         0.0 
    !H+H+H=H2+H                     3.200E+15      0.0         0.0 

    !\ENDRXN: \H+H+M=H2+M 

!\RXN: \O+O+M=O2+M 
    !\SOURCE: ARAMCO3 !\REF:TSANG AND HAMPSON, J. PHYS. CHEM. REF. DATA, 15:1087 (1986)
    O+O+M=O2+M    6.165E15 -0.5 0.0E0
        H2/2.5/
        H2O/12.0/
        CO/1.9/
        CO2/3.8/
        HE/0.83/
        CH4/2.0/
        C2H6/3.0/
        ! cH2O/12.0/   !\BOYANG
        ! cCO2/3.8/    !\BOYANG
    !!\SOURCE: KONNOV2018 !\REF: WARNATZ. COMBUSTION CHEMISTRY. (1984) p.197
    !O+O+M=O2+M                     1.000E+17     -1.0         0.0 
    !   O/28.8/ 
    !   O2/8.0/ 
    !   N2/2.0/ 
    !   H2O/5.0/ 
    !   O3/8.0/ 
    !   NO/2.0/ 
    !   N/2.0/ 
    !   cH2O/5.0/   !\BOYANG
    !\ENDRXN: \O+O+M=O2+M 

!\RXN: \O+H+M=OH+M 
    !\SOURCE: ARAMCO3 !\REF:TSANG AND HAMPSON, J. PHYS. CHEM. REF. DATA, 15:1087 (1986)
    O+H+M=OH+M    4.714E18 -1.0 0.0E0
        H2/2.5/
        H2O/12.0/
        CO/1.5/
        CO2/2.0/
        HE/0.75/
        CH4/2.0/
        C2H6/3.0/
        ! cH2O/12.0/   !\BOYANG
        ! cCO2/2.0/    !\BOYANG
    !\SOURCE: KONNOV2018 !\REF: Naudet et al. Combust. Sci. Technol. 164 (2001) 113-128
    !O+H+M=OH+M                     6.750E+18     -1.0         0.0 
    !   H2O/5.0/ 
    !\ENDRXN: \O+H+M=OH+M

!\RXN: \H+OH+M=H2O+M !\BOYANG 

    !!\SOURCE: ARAMCO3 !\REF: LI INT. J. CHEM. KINET. 36(10) (2004) 566–575.
    !H+OH+M=H2O+M    3.5E22 -2.0 0.0E0
    !    H2/0.73/
    !    H2O/3.65/
    !    CH4/2.0/
    !    C2H6/3.0/
    !    cH2O/3.65/   !\BOYANG

    !\SOURCE: KONNOV2018 !\REF: Srinivasan & Michael. Int. J. Chem. Kinet. 38 (2006) 211-219
    H2O+M=H+OH+M    6.06E27 -3.312 1.2077E5
        H2O/0.0/       !\CMNT: REPLACED BY REACTION
        H2/3.0/ 
        N2/2.0/ 
        O2/1.5/ 
        HE/1.1/ 
        CH4/7.0/ 
        CO2/4.0/
        ! cCO2/4.0/      !\BOYANG 
    H2O+H2O=H+OH+H2O    1.0E26 -2.44 1.2016E5
    !\BOYANG !\CMNT: FALSE REACTION FOR cH2O
    ! H2O+cH2O=H+OH+cH2O    1.0E26 -2.44 1.2016E5

    !\ENDRXN: \H+OH+M=H2O+M 

!\RXN: \H+O2(+M)=HO2(+M) !\BOYANG 
    

    ! !\CMNT: (Testing) Lei & Burke 2020
    ! !\REF: Lei, L., Burke, M. (2020). Mixture rules and falloff are now major uncertainties in experimentally derived rate parameters for H + O2 (+M) ↔ HO2 (+M) Combustion and Flame  213(), 467-474. https://dx.doi.org/10.1016/j.combustflame.2019.11.041
    ! H+O2(+M)=HO2(+M)    1.228E+12 0.58 -213.76
    !     AR/1.00/
    !     N2/1.53/
    !     H2O/22.56/
    !     CO2/5.42/ !\CMNT: Derived from LPL ratio CO2/AR at T = 1500 K !\REF: CHOUDHARY ET AL. COMBUST. FLAME 203 (2019) 265-278
    !     HE/0.87/  !\CMNT: Scaled from !\REF: Shao et al. Proc. Combust. Inst. 37 (2019) 145-152 
    !     O2/1.53/  !\CMNT: Scaled from !\REF: Shao et al. Proc. Combust. Inst. 37 (2019) 145-152 
    !     H2/2.30/  !\CMNT: Scaled from !\REF: Shao et al. Proc. Combust. Inst. 37 (2019) 145-152 
    !     CH4/5.36/ !\CMNT: Scaled from !\REF: Shao et al. Proc. Combust. Inst. 37 (2019) 145-152 
    !     CO/2.91/  !\CMNT: Scaled from !\REF: FERNANDES ET AL.,PHYS. CHEM. CHEM. PHYS. 10(29) (2008) 4313–4321
    !     C2H6/8.03/!\CMNT: Scaled from !\REF: FERNANDES ET AL.,PHYS. CHEM. CHEM. PHYS. 10(29) (2008) 4313–4321
    !     LOW/4.570E+20 -1.67 871.35/
    !     TROE/0.4148 1.0E-30 1.0E+30 1.0E+30/


    ! !\CMNT: (Testing) Yang et al. 2020 + ARAMCO3
    ! !\REF: Yang, X., Liang, W., Tan, T., Law, C. (2020). Reevaluation of the reaction rate of H + O2 (+M) = HO2 (+M) at elevated pressures Combustion and Flame  217(), 103-112. https://dx.doi.org/10.1016/j.combustflame.2020.03.018
    ! H+O2(+M)=HO2(+M)    1.025E+12 0.604 -241.1
    !    HE/0.64/
    !    AR/0.00/     !\CMNT: replaced by reaction
    !    N2/0.00/     !\CMNT: replaced by reaction
    !    H2/1.3/
    !    CO/1.9/
    !    CO2/3.8/
    !    H2O/10.0/
    !    CH4/2.0/
    !    C2H6/3.0/
    !    LOW/1.737E19 -1.23E0 0.0E0/
    !    TROE/6.7E-1 1.0E-30 1.0E30 1.0E30/
    ! H+O2(+AR)=HO2(+AR) 1.025E+12 0.604 -241.1
    !     LOW/2.220E+19 -1.309 278.2/
    !     TROE/0.481 1.0E-30 1.0E+30 1.0E+30/
    ! H+O2(+N2)=HO2(+N2) 1.025E+12 0.604 -241.1
    !     LOW/2.720E+19 -1.290 0/
    !     TROE/0.458 1.0E-30 1.0E+30 1.0E+30/


    !\BOYANG !\REF: (HPL) Troe. Proc. Combust. Inst. 28 (2000) 1463-1469
    !\REF: (LPL for N2 ) CHOUDHARY ET AL. COMBUST. FLAME 203 (2019) 265-278 !\CMNT: VALID TEMPERATURE = 1000-2000 K, UNCERTAINTY = 23%
    !\SOURCE: KONNOV2018 !\REF: (3RD-BODY EFF. for HE, O2, H2, CH4) MICHAEL ET AL. J. PHYS. CHEM. A 106 (2002) 5297-5313
    !\SOURCE: ARAMCO3 !\REF: (3RD-BODY EFF. for CO, C2H6) (POSSIBLY FROM) FERNANDES ET AL.,PHYS. CHEM. CHEM. PHYS. 10(29) (2008) 4313–4321
    H+O2(+M)=HO2(+M)    4.660E12 0.44 0.0E0
        AR/0.0/    !\CMNT: REPLACED BY REACTION
        CO2/0.0/   !\CMNT: REPLACED BY REACTION
        H2O/0.0/   !\CMNT: REPLACED BY REACTION
        O2/1.0/ 
        H2/1.5/ 
        HE/0.57/ 
        CH4/3.5/ 
        CO/2.19/
        C2H6/3.46/
        LOW/2.25E+21 -1.95 0.0/
        TROE/0.5 1E-30 1E30 1E30/

    !\CMNT: (BELOW) ----- AR -----
    !\BOYANG !\REF: (HPL) Troe. Proc. Combust. Inst. 28 (2000) 1463-1469
    !\REF: (LPL) CHOUDHARY ET AL. COMBUST. FLAME 203 (2019) 265-278 !\CMNT: VALID TEMPERATURE = 1000-2000 K, UNCERTAINTY = 9%
    H+O2(+AR)=HO2(+AR)  4.660E12 0.44 0.0E0
        LOW/2.66E+19 -1.36 0.0/
        TROE/0.5 1E-30 1E30 1E30/   

    !\CMNT: (BELOW) ----- CO2 -----
    !\BOYANG !\REF: (HPL) Troe. Proc. Combust. Inst. 28 (2000) 1463-1469
    !\REF: (LPL) CHOUDHARY ET AL. COMBUST. FLAME 203 (2019) 265-278 !\CMNT: VALID TEMPERATURE = 1000-2000 K, UNCERTAINTY = 28%
    H+O2(+CO2)=HO2(+CO2)  4.660E12 0.44 0.0E0
        LOW/2.23E+18 -0.79 0.0/
        TROE/0.5 1E-30 1E30 1E30/  
    !\BOYANG !\CMNT: FALSE REACTION FOR cCO2
    ! H+O2(+cCO2)=HO2(+cCO2)  4.660E12 0.44 0.0E0
    !     LOW/2.23E+18 -0.79 0.0/
    !     TROE/0.5 1 1E+10/   

    !\CMNT: (BELOW) ----- H2O -----
    !\BOYANG !\REF: (HPL) Troe. Proc. Combust. Inst. 28 (2000) 1463-1469
    !\REF: (LPL) Shao et al. Proc. Combust. Inst. 37 (2019) 145-152 !\CMNT: VALID TEMPERATURE = 1000-1430 K, UNCERTAINTY = 19%
    H+O2(+H2O)=HO2(+H2O)  4.660E12 0.44 0.0E0
        LOW/2.037E+20 -1.2 0.0/
        TROE/0.5 1E-30 1E30 1E30/   
    !\BOYANG !\CMNT: FALSE REACTION FOR cH2O
    ! H+O2(+cH2O)=HO2(+cH2O)  4.660E12 0.44 0.0E0
    !     LOW/2.037E+20 -1.2 0.0/
    !     TROE/0.5 1 1E+10/   

    ! !\SOURCE: KONNOV2018
    ! !\REF: (HPL) Troe. Proc. Combust. Inst. 28 (2000) 1463-1469
    ! !\REF: (LPL & 3rd-body Eff.) Shao et al. Proc. Combust. Inst. 37 (2019) 145-152
    ! H+O2(+M)=HO2(+M)               4.660E+12      0.44        0.0 
    !   AR/0.72/ 
    !   H2O/16.6/ 
    !   O2/1.0/ 
    !   H2/1.5/ 
    !   HE/0.57/ 
    !   CO2/3.61/ 
    !   CH4/3.5/  
    !   cCO2/3.61/   !\BOYANG
    !   cH2O/16.6/   !\BOYANG
    !   LOW/1.225E+19 -1.2 0.0/ 
    !   TROE/0.5 1 1E+10/ 

    ! !\SOURCE: ARAMCO3 !\REF: FERNANDES ET AL.,PHYS. CHEM. CHEM. PHYS. 10(29) (2008) 4313–4321
    ! H+O2(+M)=HO2(+M)    4.65E12 0.44 0.0E0
    !    !HE/0.64/
    !    HE/0.00/     !\CMNT: replaced by reaction
    !    AR/0.00/     !\CMNT: replaced by reaction
    !    H2/1.3/
    !    CO/1.9/
    !    CO2/3.8/
    !    H2O/10.0/
    !    CH4/2.0/
    !    C2H6/3.0/
    !    cCO2/3.8/    !\BOYANG
    !    cH2O/10.0/   !\BOYANG
    !    LOW/1.737E19 -1.23E0 0.0E0/
    !    TROE/6.7E-1 1.0E-30 1.0E30 1.0E30/

    ! !\SOURCE: KEROMNES2013 !\REF: FERNANDES ET AL.,PHYS. CHEM. CHEM. PHYS. 10(29) (2008) 4313–4321
    ! H+O2(+HE)<=>HO2(+HE)    4.65E12 0.44 0.0E0
    !   LOW/9.192E+18 -1.20 0.0E0 /  !\CMNT: FERNANDES X 1.5
    !   TROE/0.59 1E-30 1E30 1E30 /

    ! !\SOURCE: KEROMNES2013 !\REF: FERNANDES ET AL.,PHYS. CHEM. CHEM. PHYS. 10(29) (2008) 4313–4321
    ! H+O2(+AR)<=>HO2(+AR)    4.65E12 0.44 0.0E0
    ! !\REF: BATES ET AL. PHYS. CHEM. CHEM. PHYS. 3(12) (2001) 2337–2342.
    !   LOW/6.810E+18 -1.200 0.0/
    !   TROE/0.70 1.0E-30 1.0E+30 1.0E+30/

    !\ENDRXN: \H+O2(+M)=HO2(+M)

!\RXN: \HO2+H=OH+OH 
    !\SOURCE: ARAMCO3 !\REF: MUELLER ET AL., INT. J. CHEM. KINET. 31(10) (1999) 705–724.
    HO2+H=OH+OH    7.079E13 0.0 2.95E2
    !\ENDRXN: \HO2+H=OH+OH 

!\RXN: \H2+O2=H+HO2 
    !\SOURCE: ARAMCO3 
    HO2+H=H2+O2    1.1402E10 1.0827 5.5378E2
    !\SOURCE: KEROMNES2013 !\REF: MICHAEL ET AL., PROC. COMBUST. INST. 28(2) (2000) 1471–1478.
    !H2+O2<=>H+HO2                          5.176E+05    2.433          53502.0
    !\SOURCE: KONNOV2018 !\REF: MICHAEL ET AL., PROC. COMBUST. INST. 28(2) (2000) 1471–1478.
    !H2+O2=H+HO2                    7.400E+05      2.43    53500.0 
    !\ENDRXN: \H2+O2=H+HO2 

!\RXN: \H+HO2=H2O+O !\CMNT: ADDED FROM KONNOV2018
    !\BOYANG !\CMNT: REMOVED BECAUSE IT CAUSE DIFFICULTY IN CONVERGENCE.
    !\WARNING: Lead to difficulty in convergence.
    !\SOURCE: KONNOV2018 !\REF: CONFORTI ET AL. J. CHEM. PHYS. 133 (2010) 164312-164322
    ! H2O+O=H+HO2    2.2E8 2.0 6.16E4
    !\ENDRXN: \H+HO2=H2O+O 

!\RXN: \HO2+O=OH+O2 

    !!\SOURCE: KEROMNES2013 !\REF:BAULCH ET AL., J. PHYS. CHEM. REF DATA, 21(3) (1992) 411-734
    !HO2+O=OH+O2    3.25E13 0.0 0.0E0

    !\SOURCE: BURKE2012 !\REF: FERNANDES & VARANDAS. J. PHYS. CHEM. A 106 (2002) 4077-4083
    !\CMNT: 0.6 * ORIGINAL RATE IN PARER
    HO2+O=OH+O2    2.85E10 1.0 -7.239E2

    !\ENDRXN: \HO2+O=OH+O2

!\RXN: \HO2+OH=H2O+O2 !\BOYANG 
    
    !\BOYANG !\REF: MONGE-PALACIOS & SARATHY. PHYS. CHEM. CHEM. PHYS. 20 (2018) 4478-4489
    HO2+OH=H2O+O2    3.08E+12  0.07  -1151
        DUP
    HO2+OH=H2O+O2    8.00E+12  0.32   6896
        DUP

    !!\SOURCE: KEROMNES2013 !\REF:KEYSER, J. PHYS. CHEM. 92 (1988) 1193–1200. REDUCED BY 15%
    !HO2+OH=H2O+O2    2.456E13 0.0 -4.97E2

    !!\SOURCE: KONNOV2018 !\REF: HONG ET AL. PROC. COMBUST. INST. 34 (2013) 565-571
    !HO2+OH=H2O+O2                  7.000E+12      0.0     -1093.0 
    !    DUPLICATE
    !HO2+OH=H2O+O2                  4.500E+14      0.0     10930.0 
    !    DUPLICATE

    !\ENDRXN: \HO2+OH=H2O+O2 

!\RXN: \HO2+HO2=H2O2+O2 

    !\SOURCE: KONNOV2018 !\REF: KAPPEL ET AL. PHYS. CHEM. CHEM. PHYS. 4 (2002) 4392-4398
    HO2+HO2=H2O2+O2    1.03E14 0.0 1.104E4
        DUP
    HO2+HO2=H2O2+O2    1.94E11 0.0 -1.409E3 
        DUP

    !\SOURCE: KEROMNES2013 !\REF:HIPPLER ET AL., J. CHEM. PHYS. 93(3) (1990) 1755–1760.
    !HO2+HO2=O2+H2O2                      1.300E+11    0.000          -1630.00
    !   DUPLICATE
    !HO2+HO2=O2+H2O2                      3.658E+14    0.000          12000.00 !HIPPLER X 0.87
    !   DUPLICATE

    !\ENDRXN: \HO2+HO2=H2O2+O2 

!\RXN: \H2O2(+M)=OH+OH(+M) 

    !\SOURCE: ARAMCO3 !\REF: TROE, COMBUST. FLAME 158(4) (2011) 594–601.
    H2O2(+M)=OH+OH(+M)    2.0E12 0.9 4.8749E4
        !H2O/7.65/
        H2O/0.0/     !\CMNT: replaced by reaction
        CO2/1.6/
        N2/1.5/
        O2/1.2/
        HE/0.65/
        H2O2/7.7/
        H2/3.7/      !\REF: LI ET AL., INT. J. CHEM. KINET. 36:566-575 (2004)
        CO/2.8/      !\REF: LI ET AL., INT. J. CHEM. KINET. 36:566-575 (2004)
        !cH2O/7.65/   !\BOYANG
        ! cH2O/0.0/    !\CMNT: replaced by reaction
        ! cCO2/1.6/    !\BOYANG
        LOW/2.49E24 -2.3E0 4.8749E4/
        TROE/4.3E-1 1.0E-30 1.0E30/

    !\SOURCE: KEROMNES2013 !\REF: TROE, COMBUST. FLAME 158(4) (2011) 594–601. 
    H2O2(+H2O)<=>OH+OH(+H2O)    2.0E12 0.9 4.8749E4
        LOW/1.865E+25 -2.30 4.8749E+04/
        TROE/0.51 1E-30 1E+30/

    !\BOYANG !\CMNT: FALSE REACTION ADDED FRO cH2O
    ! H2O2(+cH2O)<=>OH+OH(+cH2O)    2.0E12 0.9 4.8749E4
    !     LOW/1.865E+25 -2.30 4.8749E+04/
    !     TROE/0.51 1E-30 1E+30/

    !\ENDRXN: \H2O2(+M)=OH+OH(+M) 

!\RXN: \H2O2+H=H2O+OH 
    !\SOURCE: KONNOV2018 !\REF: ELLINGSON ET AL. J. PHYS. CHEM. A 111 (2007) 13554-13556
    H2O2+H=H2O+OH    2.03E7 2.02 2.62E3
    !!\SOURCE: KEROMNES2013 !\REF:TSANG AND HAMPSON, J. PHYS. CHEM. REF. DATA 15 (1986) 1087–1280.
    !H2O2+H=H2O+OH    2.41E13 0.0 3.97E3
    !\ENDRXN: \H2O2+H=H2O+OH 

!\RXN: \H2O2+H=HO2+H2 
    !\SOURCE: KONNOV2018 !\REF: ELLINGSON ET AL. J. PHYS. CHEM. A 111 (2007) 13554-13556
    H2O2+H=HO2+H2    5.02E6 2.07 4.3E3
    !!\SOURCE: KEROMNES2013 !\REF: ELLINGSON ET AL., J. PHYS. CHEM. A 111(51) (2007) 13554–13566. (FIT TO THE THEORETICAL RATE)
    !H2O2+H=H2+HO2    2.15E10 1.0 6.0E3
    !\RXN: \H2O2+H=HO2+H2 

!\RXN: \H2O2+O=OH+HO2 
    !\SOURCE: KEROMNES2013 !\REF:TSANG AND HAMPSON, J. PHYS. CHEM. REF. DATA 15 (1986) 1087–1280.
    H2O2+O=OH+HO2    9.55E6 2.0 3.97E3
    !\ENDRXN: \H2O2+O=OH+HO2 

!\RXN: \H2O2+OH=H2O+HO2 
    !\SOURCE: KEROMNES2013 !\REF: HONG ET AL., J. PHYS. CHEM. A 114(18) (2010) 5718–5727.
    H2O2+OH=H2O+HO2    1.74E12 0.0 3.18E2
        DUP
    H2O2+OH=H2O+HO2    7.59E13 0.0 7.269E3
        DUP
    !\ENDRXN: \H2O2+OH=H2O+HO2 

!\RXN: \H+O2+X !\BOYANG 
    !\SOURCE: KONNOV2018 !REF: Burke & Klippenstein. Nat Chem. 9(11) (2017) 1078 
    H+O2+H=H2+O2    8.8E22 -1.835 8.0E2
    !\SOURCE: KONNOV2018 !REF: Burke & Klippenstein. Nat Chem. 9(11) (2017) 1078 
    H+O2+H=OH+OH    4.0E22 -1.835 8.0E2
    !\SOURCE: KONNOV2018 !REF: Burke & Klippenstein. Nat Chem. 9(11) (2017) 1078 
    H+O2+O=OH+O2    7.35E22 -1.835 8.0E2
    !\SOURCE: KONNOV2018 !REF: Burke & Klippenstein. Nat Chem. 9(11) (2017) 1078 
    H+O2+OH=H2O+O2    2.56E22 -1.835 8.0E2
    !\ENDRXN: \H+O2+X 

!\ENDSUBMECH: \H2+O2


!\SUBMECH: \OHX
!\SUBMECHSOURCE: KEROMNES2013, KONNOV2018

!\RXN: \H+O+M=OHX+M 
    !\SOURCE: KEROMNES2013 !\REF: KATHROTIA ET AL., COMBUST. FLAME 157(7) (2010) 1261–1273
    H+O+M=OHX+M    1.5E13 0.0 5.975E3
        H2/1.0/
        H2O/6.5/
        O2/0.4/
        N2/0.4/
        AR/0.35/
        ! cH2O/6.5/  !\BOYANG
    !\ENDRXN: \H+O+M=OHX+M 

!\RXN: \OHX=OH+hv 
    !\SOURCE: KEROMNES2013 !\REF: SMITH ET AL., COMBUST. FLAME 131(1-2) (2002) 59–69.
    OHX=OH+hv    1.45E6 0.0 0.0E0
    !!\SOURCE: KONNOV2018 !\REF: GERMAN. J. CHEM. PHYS. 62 (1975) 2584-2587
    !OHX=OH+hv    1.400E+06      0.0         0.0 
    !\ENDRXN: \OHX=OH+hv 

!\RXN: \OHX+M=OH+M !\BOYANG !\CMNT: NON-REACTIVE QUECHING OF OHX 
    !\CMNT: (BELOW) ----- AR -----
    !!\SOURCE: KEROMNES2013 !\REF: PAUL ET AL., J. CHEM. PHYS. 102(21) (1995) 8378–8384.
    !OHX+AR=OH+AR    1.69E12 0.0 4.135E3
    !\SOURCE: KONNOV2018 !\REF: HALL & PETERSEN. INT. J. CHEM. KINET. 38 (2006) 714-724
    OHX+AR=OH+AR    2.170E+10      0.5      2060.0 
    !\CMNT: (BELOW) ----- H2 -----
    !!\SOURCE: KEROMNES2013 !\REF: TAMURA ET AL., COMBUST. FLAME 114(3-4) (1998) 502–514.
    !OHX+H2=OH+H2    2.95E12 0.5 -4.44E2
    !\SOURCE: KONNOV2018 !\REF: (RATE) TAMURA ET AL., COMBUST. FLAME 114(3-4) (1998) 502–514. 
    !\CMNT: REACTIVE QUENCHING CONSIDERED. 
    !\REF: (BRANCHING RATIO) LEHMAN ET AL. J. CHEM. PHYS. 137 (2012) 094312
    OHX+H2=OH+H2    3.540E+11      0.5      -444.0 
    !\CMNT: (BELOW) ----- N2 -----
    !\SOURCE: KEROMNES2013 !\REF: TAMURA ET AL., COMBUST. FLAME 114(3-4) (1998) 502–514.
    OHX+N2=OH+N2    1.08E11 0.5 -1.242E3
    !\CMNT: (BELOW) ----- OH -----
    !\SOURCE: KEROMNES2013 !\REF: TAMURA ET AL., COMBUST. FLAME 114(3-4) (1998) 502–514.
    OHX+OH=OH+OH    6.01E12 0.5 -7.64E2
    !!\SOURCE: KONNOV2018 !\REF: HIDAKA ET AL. J. PHYS. CHEM. 86 (1982) 1429-1433
    !OHX+OH=OH+OH    1.500E+12      0.5         0.0 
    !\CMNT: (BELOW) ----- H -----
    !\SOURCE: KEROMNES2013 !\REF: TAMURA ET AL., COMBUST. FLAME 114(3-4) (1998) 502–514.
    OHX+H=OH+H    1.31E12 0.5 -1.67E2
    !!\SOURCE: KONNOV2018 !\REF: HIDAKA ET AL. J. PHYS. CHEM. 86 (1982) 1429-1433
    !OHX+H=OH+H    1.500E+12      0.5         0.0 
    !\CMNT: (BELOW) ----- O -----
    !\SOURCE: KONNOV2018 !\REF: HIDAKA ET AL. J. PHYS. CHEM. 86 (1982) 1429-1433
    OHX+O=OH+O    1.500E+12      0.5         0.0 
    !\CMNT: (BELOW) ----- O2 -----
    !!\SOURCE: KEROMNES2013 !\REF: TAMURA ET AL., COMBUST. FLAME 114(3-4) (1998) 502–514.
    !OHX+O2=OH+O2    2.1E12 0.5 -4.78E2
    !\SOURCE: KONNOV2018 !\REF: (RATE) TAMURA ET AL., COMBUST. FLAME 114(3-4) (1998) 502–514. 
    !\CMNT: REACTIVE QUENCHING CONSIDERED. 
    !\REF: (BRANCHING RATIO) LEHMAN ET AL. J. CHEM. PHYS. 137 (2012) 094312
    OHX+O2=OH+O2    8.400E+11      0.5      -482.0 
    !\CMNT: (BELOW) ----- CO -----
    !\SOURCE: KEROMNES2013 !\REF: TAMURA ET AL., COMBUST. FLAME 114(3-4) (1998) 502–514.
    OHX+CO=OH+CO    3.23E12 0.5 -7.87E2
    !\CMNT: (BELOW) ----- CH4 -----
    !\SOURCE: ARAMCO3 
    !OHX+CH4=OH+CH4    3.36E12 0.5 -6.35E2
    !\CMNT: (BELOW) ----- H2O -----
    !!\SOURCE: KEROMNES2013 !\REF: TAMURA ET AL., COMBUST. FLAME 114(3-4) (1998) 502–514.
    !OHX+H2O=OH+H2O    5.93E12 0.5 -8.6E2
    !\SOURCE: KONNOV2018 !\REF: (RATE) TAMURA ET AL., COMBUST. FLAME 114(3-4) (1998) 502–514. 
    !\CMNT: REACTIVE QUENCHING CONSIDERED. BRANCHING RATIO IS ESTIMATED TO BE 0.5:0.5 TO REACTIVE QUENCHING OHX+H2O=H2O2+H
    OHX+H2O=OH+H2O    2.960E+12      0.5      -861.0 
    !\BOYANG !\CMNT: FALSE REACTION ADDED FOR cH2O
    ! OHX+cH2O=OH+cH2O    2.960E+12      0.5      -861.0 
    !\CMNT: (BELOW) ----- CO2 -----
    !\SOURCE: KEROMNES2013 !\REF: TAMURA ET AL., COMBUST. FLAME 114(3-4) (1998) 502–514.
    OHX+CO2=OH+CO2    2.75E12 0.5 -9.68E2
    !\BOYANG !\CMNT: FALSE REACTION ADDED FOR cCO2
    ! OHX+cCO2=OH+cCO2    2.75E12 0.5 -9.68E2
    !\ENDRXN: \OHX+M=OH+M 

!\RXN: \OHX+X !\CMNT: REACTIVE QUENCHING OF OHX
    !\SOURCE: KONNOV2018 !\REF: (RATE) TAMURA ET AL., COMBUST. FLAME 114(3-4) (1998) 502–514. 
    !\REF: (BRANCHING RATIO) LEHMAN ET AL. J. CHEM. PHYS. 137 (2012) 094312
    OHX+H2=H2O+H      2.600E+12      0.5      -444.0 
    !\SOURCE: KONNOV2018 !\REF: (RATE) TAMURA ET AL., COMBUST. FLAME 114(3-4) (1998) 502–514. 
    !\REF: (BRANCHING RATIO) LEHMAN ET AL. J. CHEM. PHYS. 137 (2012) 094312
    OHX+O2=O3+H       2.520E+11      0.5      -482.0 
    !\SOURCE: KONNOV2018 !\REF: (RATE) TAMURA ET AL., COMBUST. FLAME 114(3-4) (1998) 502–514. 
    !\REF: (BRANCHING RATIO) LEHMAN ET AL. J. CHEM. PHYS. 137 (2012) 094312
    OHX+O2=HO2+O      1.008E+12      0.5      -482.0 
    !\SOURCE: KONNOV2018 !\REF: (RATE) TAMURA ET AL., COMBUST. FLAME 114(3-4) (1998) 502–514. 
    !\CMNT: REACTIVE QUENCHING CONSIDERED. BRANCHING RATIO IS ESTIMATED TO BE 0.5:0.5 TO REACTIVE QUENCHING OHX+H2O=H2O2+H
    OHX+H2O=H2O2+H    2.960E+12      0.5      -861.0 
    !\ENDRXN: \OHX+X 

!\ENDSUBMECH: \OHX


!\SUBMECH: \H2+O3+EXICITED 
!\SUBMECHSOURCE: KONNOV2018 !\REF: KONNOV. COMBUST. FLAME. 162 (2015) 3755-3772 ; KONNOV. COMBUST. FLAME. 203 (2019) 14-22

!\RXN: \O2+O+M=O3+M 
    O2+O+M=O3+M       6.530E+17     -1.5         0.0
        AR/0.0/    !\CMNT: REPLACED BY REACTION
        O2/0.95/ 
        O3/2.5/ 
        O/4.0/
        DUPLICATE
    O2+O+M=O3+M       1.330E+22     -3.3         0.0
        AR/0.0/    !\CMNT: REPLACED BY REACTION
        O2/1.07/ 
        O3/2.5/ 
        O/4.0/
        DUPLICATE
    O2+O+AR=O3+AR     4.290E+17     -1.5         0.0 
        DUPLICATE
    O2+O+AR=O3+AR     5.100E+21     -3.2         0.0 
        DUPLICATE
    !\ENDRXN: \O2+O+M=O3+M 
O3+O=O2+O2        4.820E+12      0.0      4094.0
O3+O=O2X+O2       1.440E+11      0.0      4094.0
O+O+M=O2X+M       7.000E+15     -1.0         0.0
    O/28.8/ 
    O2/8.0/ 
    N2/2.0/ 
    H2O/5.0/ 
    O3/8.0/ 
    !NO/2.0/ 
    !N/2.0/ 
    ! cH2O/5.0/   !\BOYANG
!\RXN: \O2X+M=O2+M 
    O2X+M=O2+M        1.800E+06      0.0       400.0
        O/0/         !\CMNT: REPLACED BY REACTION
        H/0/         !\CMNT: REPLACED BY REACTION
        AR/0.005/ 
        HE/0.005/ 
        N2/0.002/ 
        H2O/3.3/ 
        H2/2.5/ 
        CO2/0.01/ 
        CO/5.6/
        ! cH2O/3.3/    !\BOYANG
        ! cCO2/0.01/   !\BOYANG
    O2X+O=O2+O        7.800E+07      0.0         0.0
    O2X+H=O2+H        4.000E+13      0.0      5030.0 
    !\ENDRXN: \O2X+M=O2+M 
O2X+O+M=O+O2+M    3.600E+15      0.0         0.0 
  AR/0.63/ 
O2X+O3=O2+O2+O    3.130E+13      0.0      5644.0
OX+O2X=O+O2       6.030E+12      0.0         0.0
OX+O2=O+O2X       1.590E+13      0.0      -139.0 
!\RXN: \OX+M=O+M 
    OX+M=O+M          4.800E+11      0.0         0.0 
        O2/0/      !\CMNT: REPLACED BY REACTION
        N2/0/      !\CMNT: REPLACED BY REACTION
        O/10.0/ 
        H2O/3.0/
        ! cH2O/3.0/  !\BOYANG
    OX+O2=O+O2        2.810E+12      0.0      -139.0 
    OX+N2=O+N2        1.260E+13      0.0      -230.0 
    !\ENDRXN: \OX+M=O+M 
OX+O3=O2+O+O      7.230E+13      0.0         0.0 
OX+O3=O2+O2       7.230E+13      0.0         0.0 
H2+O2X=H+HO2      6.160E+05      2.335   31080.0
H+O2X=OH+O        3.500E+08      1.45     4508.0 
H+O2X+M=HO2+M     9.890E+09      2.03     3360.0