ELEMENTS
C H N O AR 
HE NE 
END
SPECIES

! !\SUBMECH: \FALSE-SPECIES !\BOYANG
!     iCO2 
!     cCO2 
!     iH2O 
!     cH2O
!     !\ENDSUBMECH: \FALSE-SPECIES

!\SUBMECH: \INERT 
    AR        
    HE  
    N2
    !\ENDSUBMECH: \INERT 

!\SUBMECH: \H2+O2 
    H              
    H2             
    O             
    O2             
    OH   
    H2O                        
    HO2           
    H2O2           
    !\ENDSUBMECH: \H2+O2 

!\SUBMECH: \H2+O3+EXCITED
    OX   
    OHX   
    O2X   
    O3
    !\ENDSUBMECH: \H2+O3+EXCITED

!\SUBMECH: \CO 
    CO             
    CO2 
    HOCO
    HCO
    !\ENDSUBMECH: \CO  

CH4 CH3 C2H6
END

REACTIONS MOLES CAL/MOLE

!\SUBMECH: \H2+O2 
!\SUBMECHCMNT: modified based KEROMNES2013 and ARAMCO3.

!\RXN: \H+O2=O+OH !\BOYANG 
    !\SOURCE: KEROMNES2013 !\REF: HONG ET AL., PROC. COMBUST.INST. 33(1) (2011) 309–316. ; WANG ET AL. J. PHYS. CHEM. A 121(45) (2017) 8561-8568 
    H+O2=O+OH    1.04E14 0.0 1.5286E4
    !\BOYANG !\CMNT: ignored because it agrees very well with Hong et al. 2011 over the valid T range.
    !\CMNT: VALID FOR 1428–-1685 K, UNCERTAINTY = 10%
    !\REF: WANG ET AL. J. PHYS. CHEM. A 121(45) (2017) 8561-8568 
    !H+O2=O+OH    8.04E13 0.0 1.4646E4
    !\ENDRXN: \H+O2=O+OH=O+OH 

!\RXN: \H2+O=H+OH !\BOYANG

    !\BOYANG !\CMNT: COMBINED FIT OF BAULCH ET AL. AND NAGUYUEN & STANTON.
    !\REF: ( 200-1600 K) NAGUYUEN & STANTON. J. PHYS. CHEM. A 118(27) (2014) 4918-4928
    !\REF: (1700-3600 K) BAULCH ET AL. J. PHYS. CHEM. REF. DATA 34 (2005) 757-1397
    H2+O=H+OH    8.843E5 2.335 7.058E3
        DUP
    H2+O=H+OH    3.149E46 -12.972 1.146E4
        DUP

    !\SOURCE: KEROMNES2013 !\REF: SUTHERLAND ET AL., 21ST SYMPOSIUM, P. 929 (1986)
    !H2+O=H+OH    5.08E4 2.67 6.292E3

    !\SOURCE: BURKE2012 !\REF: BAULCH ET AL. J. PHYS. CHEM. REF. DATA 34 (2005) 757-1397
    !\CMNT: VALID FOR 300-3500 K !\CMNT: AGREE WITH ALL MEASUREMENTS VERY WELL.
    !H2+O=H+OH    3.82E+12 0.00 7.948E+3
    !   DUP
    !H2+O=H+OH    8.79E+14 0.00 1.917E+4
    !   DUP

    !\ENDRXN: \H2+O=H+OH 

!\RXN: \H2+OH=H+H2O

    !\CMNT: LOWER THAN EXP AT HIGH T. 
    !\SOURCE: KEROMNES2013 !\REF: LAM ET AL. (STANFORD) SUBMITTED TO IJCK (2012)
    !H2+OH=H+H2O    4.38E13 0.0 6.99E3

    !\CMNT: KONNOV2018 = BURKE2012 = LI2004 = HONG2011
    !\SOURCE: KONNOV2018 !\REF: BAULCH ET AL. J. PHYS. CHEM. REF. DATA 34 (2005) 757-1397
    H2+OH=H2O+H    2.14E8 1.52 3.45E3 
    !!\SOURCE: BURKE2012 !\REF: MICHAEL & SUTHERLAND. J. PHYS. CHEM. 92 (1988) 3853-3857
    !H2+OH=H2O+H    2.16E+08  1.51  3430.0 
    !!\SOURCE: HONG2011 !\REF: BAULCH ET AL. J. PHYS. CHEM. REF. DATA 34 (2005) 757-1397
    !H2+OH=H2O+H    2.17E+08  1.52  3457.0 

    !\BOYANG !\CMNT: HIGHER THAN EXP AT HIGH T.
    !\REF: MEISNER & KASTNER. J. Chem. Phys. 144, 174303 (2016); J. Chem. Phys. 147, 049903 (2017)
    !H2+OH=H2O+H    1.0075E+06  2.1863  2.3225E+03  
    !   DUP
    !H2+OH=H2O+H    4.5157E-03  4.4531  -3.7552E+02
    !   DUP

    !\ENDRXN: \H2+OH=H+H2O

!\RXN: \O+H2O=OH+OH !\BOYANG

    !\SOURCE: ARAMCO3
    !O+H2O=OH+OH    6.7E7 1.704 1.49868E4

    !\SOURCE: KEROMNES2013 !\REF:SUTHERLAND ET AL., 23RD SYMPOSIUM, P. 51 (1990)
    !O+H2O<=>OH+OH                         2.97E+06      2.02         1.340E+04 

    !\SOURCE: KONNOV2018 !\REF: Altinay & Macdonald. J. Phys. Chem. A 118 (2014) 38-54  !\REF: Nguyen & Stanton. J. Phys. Chem. A 117 (2013) 2678-2686
    OH+OH=H2O+O    2.668E6 1.82 -1.647E3

    !\ENDRXN: \O+H2O=OH+OH

!\RXN: \H+H+M=H2+M 

    !\SOURCE: ARAMCO3 !\REF:TSANG AND HAMPSON, J. PHYS. CHEM. REF. DATA, 15:1087 (1986)
    H2+M=H+H+M    4.577E19 -1.4 1.044E5
        H2/2.5/
        H2O/12.0/
        CO/1.9/
        CO2/3.8/
        HE/0.83/
        CH4/2.0/
        C2H6/3.0/
        ! cCO2/3.8/    !\BOYANG
        ! cH2O/12.0/   !\BOYANG

    !\SOURCE: KONNOV2018 !\REF: Cohen & Westberg. J. Phys. Chem. Ref. Data 12 (1983) 531
    !H+H+M=H2+M                     7.000E+17     -1.0         0.0
    !   H2/0.0/ 
    !   N2/0.0/ 
    !   H/0.0/ 
    !   H2O/14.3/ 
    !   CO/3.0/ 
    !   CO2/3.0/ 
    !   cCO2/3.0/    !\BOYANG
    !   cH2O/14.3/   !\BOYANG
    !H+H+H2=H2+H2                   1.000E+17     -0.6         0.0 
    !H+H+N2=H2+N2                   5.400E+18     -1.3         0.0 
    !H+H+H=H2+H                     3.200E+15      0.0         0.0 

    !\ENDRXN: \H+H+M=H2+M 

!\RXN: \O+O+M=O2+M 
    !\SOURCE: ARAMCO3 !\REF:TSANG AND HAMPSON, J. PHYS. CHEM. REF. DATA, 15:1087 (1986)
    O+O+M=O2+M    6.165E15 -0.5 0.0E0
        H2/2.5/
        H2O/12.0/
        CO/1.9/
        CO2/3.8/
        HE/0.83/
        CH4/2.0/
        C2H6/3.0/
        ! cH2O/12.0/   !\BOYANG
        ! cCO2/3.8/    !\BOYANG
    !!\SOURCE: KONNOV2018 !\REF: WARNATZ. COMBUSTION CHEMISTRY. (1984) p.197
    !O+O+M=O2+M                     1.000E+17     -1.0         0.0 
    !   O/28.8/ 
    !   O2/8.0/ 
    !   N2/2.0/ 
    !   H2O/5.0/ 
    !   O3/8.0/ 
    !   NO/2.0/ 
    !   N/2.0/ 
    !   cH2O/5.0/   !\BOYANG
    !\ENDRXN: \O+O+M=O2+M 

!\RXN: \O+H+M=OH+M 
    !\SOURCE: ARAMCO3 !\REF:TSANG AND HAMPSON, J. PHYS. CHEM. REF. DATA, 15:1087 (1986)
    O+H+M=OH+M    4.714E18 -1.0 0.0E0
        H2/2.5/
        H2O/12.0/
        CO/1.5/
        CO2/2.0/
        HE/0.75/
        CH4/2.0/
        C2H6/3.0/
        ! cH2O/12.0/   !\BOYANG
        ! cCO2/2.0/    !\BOYANG
    !\SOURCE: KONNOV2018 !\REF: Naudet et al. Combust. Sci. Technol. 164 (2001) 113-128
    !O+H+M=OH+M                     6.750E+18     -1.0         0.0 
    !   H2O/5.0/ 
    !\ENDRXN: \O+H+M=OH+M

!\RXN: \H+OH+M=H2O+M !\BOYANG 

    !!\SOURCE: ARAMCO3 !\REF: LI INT. J. CHEM. KINET. 36(10) (2004) 566–575.
    !H+OH+M=H2O+M    3.5E22 -2.0 0.0E0
    !    H2/0.73/
    !    H2O/3.65/
    !    CH4/2.0/
    !    C2H6/3.0/
    !    cH2O/3.65/   !\BOYANG

    !\SOURCE: KONNOV2018 !\REF: Srinivasan & Michael. Int. J. Chem. Kinet. 38 (2006) 211-219
    H2O+M=H+OH+M    6.06E27 -3.312 1.2077E5
        H2O/0.0/       !\CMNT: REPLACED BY REACTION
        H2/3.0/ 
        N2/2.0/ 
        O2/1.5/ 
        HE/1.1/ 
        CH4/7.0/ 
        CO2/4.0/
        ! cCO2/4.0/      !\BOYANG 
    H2O+H2O=H+OH+H2O    1.0E26 -2.44 1.2016E5
    !\BOYANG !\CMNT: FALSE REACTION FOR cH2O
    ! H2O+cH2O=H+OH+cH2O    1.0E26 -2.44 1.2016E5

    !\ENDRXN: \H+OH+M=H2O+M 

!\RXN: \H+O2(+M)=HO2(+M) !\BOYANG 
    

    ! !\CMNT: (Testing) Lei & Burke 2020
    ! !\REF: Lei, L., Burke, M. (2020). Mixture rules and falloff are now major uncertainties in experimentally derived rate parameters for H + O2 (+M) ↔ HO2 (+M) Combustion and Flame  213(), 467-474. https://dx.doi.org/10.1016/j.combustflame.2019.11.041
    ! H+O2(+M)=HO2(+M)    1.228E+12 0.58 -213.76
    !     AR/1.00/
    !     N2/1.53/
    !     H2O/22.56/
    !     CO2/5.42/ !\CMNT: Derived from LPL ratio CO2/AR at T = 1500 K !\REF: CHOUDHARY ET AL. COMBUST. FLAME 203 (2019) 265-278
    !     HE/0.87/  !\CMNT: Scaled from !\REF: Shao et al. Proc. Combust. Inst. 37 (2019) 145-152 
    !     O2/1.53/  !\CMNT: Scaled from !\REF: Shao et al. Proc. Combust. Inst. 37 (2019) 145-152 
    !     H2/2.30/  !\CMNT: Scaled from !\REF: Shao et al. Proc. Combust. Inst. 37 (2019) 145-152 
    !     CH4/5.36/ !\CMNT: Scaled from !\REF: Shao et al. Proc. Combust. Inst. 37 (2019) 145-152 
    !     CO/2.91/  !\CMNT: Scaled from !\REF: FERNANDES ET AL.,PHYS. CHEM. CHEM. PHYS. 10(29) (2008) 4313–4321
    !     C2H6/8.03/!\CMNT: Scaled from !\REF: FERNANDES ET AL.,PHYS. CHEM. CHEM. PHYS. 10(29) (2008) 4313–4321
    !     LOW/4.570E+20 -1.67 871.35/
    !     TROE/0.4148 1.0E-30 1.0E+30 1.0E+30/


    ! !\CMNT: (Testing) Yang et al. 2020 + ARAMCO3
    ! !\REF: Yang, X., Liang, W., Tan, T., Law, C. (2020). Reevaluation of the reaction rate of H + O2 (+M) = HO2 (+M) at elevated pressures Combustion and Flame  217(), 103-112. https://dx.doi.org/10.1016/j.combustflame.2020.03.018
    ! H+O2(+M)=HO2(+M)    1.025E+12 0.604 -241.1
    !    HE/0.64/
    !    AR/0.00/     !\CMNT: replaced by reaction
    !    N2/0.00/     !\CMNT: replaced by reaction
    !    H2/1.3/
    !    CO/1.9/
    !    CO2/3.8/
    !    H2O/10.0/
    !    CH4/2.0/
    !    C2H6/3.0/
    !    LOW/1.737E19 -1.23E0 0.0E0/
    !    TROE/6.7E-1 1.0E-30 1.0E30 1.0E30/
    ! H+O2(+AR)=HO2(+AR) 1.025E+12 0.604 -241.1
    !     LOW/2.220E+19 -1.309 278.2/
    !     TROE/0.481 1.0E-30 1.0E+30 1.0E+30/
    ! H+O2(+N2)=HO2(+N2) 1.025E+12 0.604 -241.1
    !     LOW/2.720E+19 -1.290 0/
    !     TROE/0.458 1.0E-30 1.0E+30 1.0E+30/


    !\BOYANG !\REF: (HPL) Troe. Proc. Combust. Inst. 28 (2000) 1463-1469
    !\REF: (LPL for N2 ) CHOUDHARY ET AL. COMBUST. FLAME 203 (2019) 265-278 !\CMNT: VALID TEMPERATURE = 1000-2000 K, UNCERTAINTY = 23%
    !\SOURCE: KONNOV2018 !\REF: (3RD-BODY EFF. for HE, O2, H2, CH4) MICHAEL ET AL. J. PHYS. CHEM. A 106 (2002) 5297-5313
    !\SOURCE: ARAMCO3 !\REF: (3RD-BODY EFF. for CO, C2H6) (POSSIBLY FROM) FERNANDES ET AL.,PHYS. CHEM. CHEM. PHYS. 10(29) (2008) 4313–4321
    H+O2(+M)=HO2(+M)    4.660E12 0.44 0.0E0
        AR/0.0/    !\CMNT: REPLACED BY REACTION
        CO2/0.0/   !\CMNT: REPLACED BY REACTION
        H2O/0.0/   !\CMNT: REPLACED BY REACTION
        O2/1.0/ 
        H2/1.5/ 
        HE/0.57/ 
        CH4/3.5/ 
        CO/2.19/
        C2H6/3.46/
        LOW/2.25E+21 -1.95 0.0/
        TROE/0.5 1E-30 1E30 1E30/

    !\CMNT: (BELOW) ----- AR -----
    !\BOYANG !\REF: (HPL) Troe. Proc. Combust. Inst. 28 (2000) 1463-1469
    !\REF: (LPL) CHOUDHARY ET AL. COMBUST. FLAME 203 (2019) 265-278 !\CMNT: VALID TEMPERATURE = 1000-2000 K, UNCERTAINTY = 9%
    H+O2(+AR)=HO2(+AR)  4.660E12 0.44 0.0E0
        LOW/2.66E+19 -1.36 0.0/
        TROE/0.5 1E-30 1E30 1E30/   

    !\CMNT: (BELOW) ----- CO2 -----
    !\BOYANG !\REF: (HPL) Troe. Proc. Combust. Inst. 28 (2000) 1463-1469
    !\REF: (LPL) CHOUDHARY ET AL. COMBUST. FLAME 203 (2019) 265-278 !\CMNT: VALID TEMPERATURE = 1000-2000 K, UNCERTAINTY = 28%
    H+O2(+CO2)=HO2(+CO2)  4.660E12 0.44 0.0E0
        LOW/2.23E+18 -0.79 0.0/
        TROE/0.5 1E-30 1E30 1E30/  
    !\BOYANG !\CMNT: FALSE REACTION FOR cCO2
    ! H+O2(+cCO2)=HO2(+cCO2)  4.660E12 0.44 0.0E0
    !     LOW/2.23E+18 -0.79 0.0/
    !     TROE/0.5 1 1E+10/   

    !\CMNT: (BELOW) ----- H2O -----
    !\BOYANG !\REF: (HPL) Troe. Proc. Combust. Inst. 28 (2000) 1463-1469
    !\REF: (LPL) Shao et al. Proc. Combust. Inst. 37 (2019) 145-152 !\CMNT: VALID TEMPERATURE = 1000-1430 K, UNCERTAINTY = 19%
    H+O2(+H2O)=HO2(+H2O)  4.660E12 0.44 0.0E0
        LOW/2.037E+20 -1.2 0.0/
        TROE/0.5 1E-30 1E30 1E30/   
    !\BOYANG !\CMNT: FALSE REACTION FOR cH2O
    ! H+O2(+cH2O)=HO2(+cH2O)  4.660E12 0.44 0.0E0
    !     LOW/2.037E+20 -1.2 0.0/
    !     TROE/0.5 1 1E+10/   

    ! !\SOURCE: KONNOV2018
    ! !\REF: (HPL) Troe. Proc. Combust. Inst. 28 (2000) 1463-1469
    ! !\REF: (LPL & 3rd-body Eff.) Shao et al. Proc. Combust. Inst. 37 (2019) 145-152
    ! H+O2(+M)=HO2(+M)               4.660E+12      0.44        0.0 
    !   AR/0.72/ 
    !   H2O/16.6/ 
    !   O2/1.0/ 
    !   H2/1.5/ 
    !   HE/0.57/ 
    !   CO2/3.61/ 
    !   CH4/3.5/  
    !   cCO2/3.61/   !\BOYANG
    !   cH2O/16.6/   !\BOYANG
    !   LOW/1.225E+19 -1.2 0.0/ 
    !   TROE/0.5 1 1E+10/ 

    ! !\SOURCE: ARAMCO3 !\REF: FERNANDES ET AL.,PHYS. CHEM. CHEM. PHYS. 10(29) (2008) 4313–4321
    ! H+O2(+M)=HO2(+M)    4.65E12 0.44 0.0E0
    !    !HE/0.64/
    !    HE/0.00/     !\CMNT: replaced by reaction
    !    AR/0.00/     !\CMNT: replaced by reaction
    !    H2/1.3/
    !    CO/1.9/
    !    CO2/3.8/
    !    H2O/10.0/
    !    CH4/2.0/
    !    C2H6/3.0/
    !    cCO2/3.8/    !\BOYANG
    !    cH2O/10.0/   !\BOYANG
    !    LOW/1.737E19 -1.23E0 0.0E0/
    !    TROE/6.7E-1 1.0E-30 1.0E30 1.0E30/

    ! !\SOURCE: KEROMNES2013 !\REF: FERNANDES ET AL.,PHYS. CHEM. CHEM. PHYS. 10(29) (2008) 4313–4321
    ! H+O2(+HE)<=>HO2(+HE)    4.65E12 0.44 0.0E0
    !   LOW/9.192E+18 -1.20 0.0E0 /  !\CMNT: FERNANDES X 1.5
    !   TROE/0.59 1E-30 1E30 1E30 /

    ! !\SOURCE: KEROMNES2013 !\REF: FERNANDES ET AL.,PHYS. CHEM. CHEM. PHYS. 10(29) (2008) 4313–4321
    ! H+O2(+AR)<=>HO2(+AR)    4.65E12 0.44 0.0E0
    ! !\REF: BATES ET AL. PHYS. CHEM. CHEM. PHYS. 3(12) (2001) 2337–2342.
    !   LOW/6.810E+18 -1.200 0.0/
    !   TROE/0.70 1.0E-30 1.0E+30 1.0E+30/

    !\ENDRXN: \H+O2(+M)=HO2(+M)

!\RXN: \HO2+H=OH+OH 
    !\SOURCE: ARAMCO3 !\REF: MUELLER ET AL., INT. J. CHEM. KINET. 31(10) (1999) 705–724.
    HO2+H=OH+OH    7.079E13 0.0 2.95E2
    !\ENDRXN: \HO2+H=OH+OH 

!\RXN: \H2+O2=H+HO2 
    !\SOURCE: ARAMCO3 
    HO2+H=H2+O2    1.1402E10 1.0827 5.5378E2
    !\SOURCE: KEROMNES2013 !\REF: MICHAEL ET AL., PROC. COMBUST. INST. 28(2) (2000) 1471–1478.
    !H2+O2<=>H+HO2                          5.176E+05    2.433          53502.0
    !\SOURCE: KONNOV2018 !\REF: MICHAEL ET AL., PROC. COMBUST. INST. 28(2) (2000) 1471–1478.
    !H2+O2=H+HO2                    7.400E+05      2.43    53500.0 
    !\ENDRXN: \H2+O2=H+HO2 

!\RXN: \H+HO2=H2O+O !\CMNT: ADDED FROM KONNOV2018
    !\BOYANG !\CMNT: REMOVED BECAUSE IT CAUSE DIFFICULTY IN CONVERGENCE.
    !\WARNING: Lead to difficulty in convergence.
    !\SOURCE: KONNOV2018 !\REF: CONFORTI ET AL. J. CHEM. PHYS. 133 (2010) 164312-164322
    ! H2O+O=H+HO2    2.2E8 2.0 6.16E4
    !\ENDRXN: \H+HO2=H2O+O 

!\RXN: \HO2+O=OH+O2 

    !!\SOURCE: KEROMNES2013 !\REF:BAULCH ET AL., J. PHYS. CHEM. REF DATA, 21(3) (1992) 411-734
    !HO2+O=OH+O2    3.25E13 0.0 0.0E0

    !\SOURCE: BURKE2012 !\REF: FERNANDES & VARANDAS. J. PHYS. CHEM. A 106 (2002) 4077-4083
    !\CMNT: 0.6 * ORIGINAL RATE IN PARER
    HO2+O=OH+O2    2.85E10 1.0 -7.239E2

    !\ENDRXN: \HO2+O=OH+O2

!\RXN: \HO2+OH=H2O+O2 !\BOYANG 
    
    !\BOYANG !\REF: MONGE-PALACIOS & SARATHY. PHYS. CHEM. CHEM. PHYS. 20 (2018) 4478-4489
    HO2+OH=H2O+O2    3.08E+12  0.07  -1151
        DUP
    HO2+OH=H2O+O2    8.00E+12  0.32   6896
        DUP

    !!\SOURCE: KEROMNES2013 !\REF:KEYSER, J. PHYS. CHEM. 92 (1988) 1193–1200. REDUCED BY 15%
    !HO2+OH=H2O+O2    2.456E13 0.0 -4.97E2

    !!\SOURCE: KONNOV2018 !\REF: HONG ET AL. PROC. COMBUST. INST. 34 (2013) 565-571
    !HO2+OH=H2O+O2                  7.000E+12      0.0     -1093.0 
    !    DUPLICATE
    !HO2+OH=H2O+O2                  4.500E+14      0.0     10930.0 
    !    DUPLICATE

    !\ENDRXN: \HO2+OH=H2O+O2 

!\RXN: \HO2+HO2=H2O2+O2 

    !\SOURCE: KONNOV2018 !\REF: KAPPEL ET AL. PHYS. CHEM. CHEM. PHYS. 4 (2002) 4392-4398
    HO2+HO2=H2O2+O2    1.03E14 0.0 1.104E4
        DUP
    HO2+HO2=H2O2+O2    1.94E11 0.0 -1.409E3 
        DUP

    !\SOURCE: KEROMNES2013 !\REF:HIPPLER ET AL., J. CHEM. PHYS. 93(3) (1990) 1755–1760.
    !HO2+HO2=O2+H2O2                      1.300E+11    0.000          -1630.00
    !   DUPLICATE
    !HO2+HO2=O2+H2O2                      3.658E+14    0.000          12000.00 !HIPPLER X 0.87
    !   DUPLICATE

    !\ENDRXN: \HO2+HO2=H2O2+O2 

!\RXN: \H2O2(+M)=OH+OH(+M) 

    !\SOURCE: ARAMCO3 !\REF: TROE, COMBUST. FLAME 158(4) (2011) 594–601.
    H2O2(+M)=OH+OH(+M)    2.0E12 0.9 4.8749E4
        !H2O/7.65/
        H2O/0.0/     !\CMNT: replaced by reaction
        CO2/1.6/
        N2/1.5/
        O2/1.2/
        HE/0.65/
        H2O2/7.7/
        H2/3.7/      !\REF: LI ET AL., INT. J. CHEM. KINET. 36:566-575 (2004)
        CO/2.8/      !\REF: LI ET AL., INT. J. CHEM. KINET. 36:566-575 (2004)
        !cH2O/7.65/   !\BOYANG
        ! cH2O/0.0/    !\CMNT: replaced by reaction
        ! cCO2/1.6/    !\BOYANG
        LOW/2.49E24 -2.3E0 4.8749E4/
        TROE/4.3E-1 1.0E-30 1.0E30/

    !\SOURCE: KEROMNES2013 !\REF: TROE, COMBUST. FLAME 158(4) (2011) 594–601. 
    H2O2(+H2O)<=>OH+OH(+H2O)    2.0E12 0.9 4.8749E4
        LOW/1.865E+25 -2.30 4.8749E+04/
        TROE/0.51 1E-30 1E+30/

    !\BOYANG !\CMNT: FALSE REACTION ADDED FRO cH2O
    ! H2O2(+cH2O)<=>OH+OH(+cH2O)    2.0E12 0.9 4.8749E4
    !     LOW/1.865E+25 -2.30 4.8749E+04/
    !     TROE/0.51 1E-30 1E+30/

    !\ENDRXN: \H2O2(+M)=OH+OH(+M) 

!\RXN: \H2O2+H=H2O+OH 
    !\SOURCE: KONNOV2018 !\REF: ELLINGSON ET AL. J. PHYS. CHEM. A 111 (2007) 13554-13556
    H2O2+H=H2O+OH    2.03E7 2.02 2.62E3
    !!\SOURCE: KEROMNES2013 !\REF:TSANG AND HAMPSON, J. PHYS. CHEM. REF. DATA 15 (1986) 1087–1280.
    !H2O2+H=H2O+OH    2.41E13 0.0 3.97E3
    !\ENDRXN: \H2O2+H=H2O+OH 

!\RXN: \H2O2+H=HO2+H2 
    !\SOURCE: KONNOV2018 !\REF: ELLINGSON ET AL. J. PHYS. CHEM. A 111 (2007) 13554-13556
    H2O2+H=HO2+H2    5.02E6 2.07 4.3E3
    !!\SOURCE: KEROMNES2013 !\REF: ELLINGSON ET AL., J. PHYS. CHEM. A 111(51) (2007) 13554–13566. (FIT TO THE THEORETICAL RATE)
    !H2O2+H=H2+HO2    2.15E10 1.0 6.0E3
    !\RXN: \H2O2+H=HO2+H2 

!\RXN: \H2O2+O=OH+HO2 
    !\SOURCE: KEROMNES2013 !\REF:TSANG AND HAMPSON, J. PHYS. CHEM. REF. DATA 15 (1986) 1087–1280.
    H2O2+O=OH+HO2    9.55E6 2.0 3.97E3
    !\ENDRXN: \H2O2+O=OH+HO2 

!\RXN: \H2O2+OH=H2O+HO2 
    !\SOURCE: KEROMNES2013 !\REF: HONG ET AL., J. PHYS. CHEM. A 114(18) (2010) 5718–5727.
    H2O2+OH=H2O+HO2    1.74E12 0.0 3.18E2
        DUP
    H2O2+OH=H2O+HO2    7.59E13 0.0 7.269E3
        DUP
    !\ENDRXN: \H2O2+OH=H2O+HO2 

!\RXN: \H+O2+X !\BOYANG 
    !\SOURCE: KONNOV2018 !REF: Burke & Klippenstein. Nat Chem. 9(11) (2017) 1078 
    H+O2+H=H2+O2    8.8E22 -1.835 8.0E2
    !\SOURCE: KONNOV2018 !REF: Burke & Klippenstein. Nat Chem. 9(11) (2017) 1078 
    H+O2+H=OH+OH    4.0E22 -1.835 8.0E2
    !\SOURCE: KONNOV2018 !REF: Burke & Klippenstein. Nat Chem. 9(11) (2017) 1078 
    H+O2+O=OH+O2    7.35E22 -1.835 8.0E2
    !\SOURCE: KONNOV2018 !REF: Burke & Klippenstein. Nat Chem. 9(11) (2017) 1078 
    H+O2+OH=H2O+O2    2.56E22 -1.835 8.0E2
    !\ENDRXN: \H+O2+X 

!\ENDSUBMECH: \H2+O2


!\SUBMECH: \OHX
!\SUBMECHSOURCE: KEROMNES2013, KONNOV2018

!\RXN: \H+O+M=OHX+M 
    !\SOURCE: KEROMNES2013 !\REF: KATHROTIA ET AL., COMBUST. FLAME 157(7) (2010) 1261–1273
    H+O+M=OHX+M    1.5E13 0.0 5.975E3
        H2/1.0/
        H2O/6.5/
        O2/0.4/
        N2/0.4/
        AR/0.35/
        ! cH2O/6.5/  !\BOYANG
    !\ENDRXN: \H+O+M=OHX+M 

!\RXN: \OHX=OH+hv 
    !\SOURCE: KEROMNES2013 !\REF: SMITH ET AL., COMBUST. FLAME 131(1-2) (2002) 59–69.
    OHX=OH+hv    1.45E6 0.0 0.0E0
    !!\SOURCE: KONNOV2018 !\REF: GERMAN. J. CHEM. PHYS. 62 (1975) 2584-2587
    !OHX=OH+hv    1.400E+06      0.0         0.0 
    !\ENDRXN: \OHX=OH+hv 

!\RXN: \OHX+M=OH+M !\BOYANG !\CMNT: NON-REACTIVE QUECHING OF OHX 
    !\CMNT: (BELOW) ----- AR -----
    !!\SOURCE: KEROMNES2013 !\REF: PAUL ET AL., J. CHEM. PHYS. 102(21) (1995) 8378–8384.
    !OHX+AR=OH+AR    1.69E12 0.0 4.135E3
    !\SOURCE: KONNOV2018 !\REF: HALL & PETERSEN. INT. J. CHEM. KINET. 38 (2006) 714-724
    OHX+AR=OH+AR    2.170E+10      0.5      2060.0 
    !\CMNT: (BELOW) ----- H2 -----
    !!\SOURCE: KEROMNES2013 !\REF: TAMURA ET AL., COMBUST. FLAME 114(3-4) (1998) 502–514.
    !OHX+H2=OH+H2    2.95E12 0.5 -4.44E2
    !\SOURCE: KONNOV2018 !\REF: (RATE) TAMURA ET AL., COMBUST. FLAME 114(3-4) (1998) 502–514. 
    !\CMNT: REACTIVE QUENCHING CONSIDERED. 
    !\REF: (BRANCHING RATIO) LEHMAN ET AL. J. CHEM. PHYS. 137 (2012) 094312
    OHX+H2=OH+H2    3.540E+11      0.5      -444.0 
    !\CMNT: (BELOW) ----- N2 -----
    !\SOURCE: KEROMNES2013 !\REF: TAMURA ET AL., COMBUST. FLAME 114(3-4) (1998) 502–514.
    OHX+N2=OH+N2    1.08E11 0.5 -1.242E3
    !\CMNT: (BELOW) ----- OH -----
    !\SOURCE: KEROMNES2013 !\REF: TAMURA ET AL., COMBUST. FLAME 114(3-4) (1998) 502–514.
    OHX+OH=OH+OH    6.01E12 0.5 -7.64E2
    !!\SOURCE: KONNOV2018 !\REF: HIDAKA ET AL. J. PHYS. CHEM. 86 (1982) 1429-1433
    !OHX+OH=OH+OH    1.500E+12      0.5         0.0 
    !\CMNT: (BELOW) ----- H -----
    !\SOURCE: KEROMNES2013 !\REF: TAMURA ET AL., COMBUST. FLAME 114(3-4) (1998) 502–514.
    OHX+H=OH+H    1.31E12 0.5 -1.67E2
    !!\SOURCE: KONNOV2018 !\REF: HIDAKA ET AL. J. PHYS. CHEM. 86 (1982) 1429-1433
    !OHX+H=OH+H    1.500E+12      0.5         0.0 
    !\CMNT: (BELOW) ----- O -----
    !\SOURCE: KONNOV2018 !\REF: HIDAKA ET AL. J. PHYS. CHEM. 86 (1982) 1429-1433
    OHX+O=OH+O    1.500E+12      0.5         0.0 
    !\CMNT: (BELOW) ----- O2 -----
    !!\SOURCE: KEROMNES2013 !\REF: TAMURA ET AL., COMBUST. FLAME 114(3-4) (1998) 502–514.
    !OHX+O2=OH+O2    2.1E12 0.5 -4.78E2
    !\SOURCE: KONNOV2018 !\REF: (RATE) TAMURA ET AL., COMBUST. FLAME 114(3-4) (1998) 502–514. 
    !\CMNT: REACTIVE QUENCHING CONSIDERED. 
    !\REF: (BRANCHING RATIO) LEHMAN ET AL. J. CHEM. PHYS. 137 (2012) 094312
    OHX+O2=OH+O2    8.400E+11      0.5      -482.0 
    !\CMNT: (BELOW) ----- CO -----
    !\SOURCE: KEROMNES2013 !\REF: TAMURA ET AL., COMBUST. FLAME 114(3-4) (1998) 502–514.
    OHX+CO=OH+CO    3.23E12 0.5 -7.87E2
    !\CMNT: (BELOW) ----- CH4 -----
    !\SOURCE: ARAMCO3 
    !OHX+CH4=OH+CH4    3.36E12 0.5 -6.35E2
    !\CMNT: (BELOW) ----- H2O -----
    !!\SOURCE: KEROMNES2013 !\REF: TAMURA ET AL., COMBUST. FLAME 114(3-4) (1998) 502–514.
    !OHX+H2O=OH+H2O    5.93E12 0.5 -8.6E2
    !\SOURCE: KONNOV2018 !\REF: (RATE) TAMURA ET AL., COMBUST. FLAME 114(3-4) (1998) 502–514. 
    !\CMNT: REACTIVE QUENCHING CONSIDERED. BRANCHING RATIO IS ESTIMATED TO BE 0.5:0.5 TO REACTIVE QUENCHING OHX+H2O=H2O2+H
    OHX+H2O=OH+H2O    2.960E+12      0.5      -861.0 
    !\BOYANG !\CMNT: FALSE REACTION ADDED FOR cH2O
    ! OHX+cH2O=OH+cH2O    2.960E+12      0.5      -861.0 
    !\CMNT: (BELOW) ----- CO2 -----
    !\SOURCE: KEROMNES2013 !\REF: TAMURA ET AL., COMBUST. FLAME 114(3-4) (1998) 502–514.
    OHX+CO2=OH+CO2    2.75E12 0.5 -9.68E2
    !\BOYANG !\CMNT: FALSE REACTION ADDED FOR cCO2
    ! OHX+cCO2=OH+cCO2    2.75E12 0.5 -9.68E2
    !\ENDRXN: \OHX+M=OH+M 

!\RXN: \OHX+X !\CMNT: REACTIVE QUENCHING OF OHX
    !\SOURCE: KONNOV2018 !\REF: (RATE) TAMURA ET AL., COMBUST. FLAME 114(3-4) (1998) 502–514. 
    !\REF: (BRANCHING RATIO) LEHMAN ET AL. J. CHEM. PHYS. 137 (2012) 094312
    OHX+H2=H2O+H      2.600E+12      0.5      -444.0 
    !\SOURCE: KONNOV2018 !\REF: (RATE) TAMURA ET AL., COMBUST. FLAME 114(3-4) (1998) 502–514. 
    !\REF: (BRANCHING RATIO) LEHMAN ET AL. J. CHEM. PHYS. 137 (2012) 094312
    OHX+O2=O3+H       2.520E+11      0.5      -482.0 
    !\SOURCE: KONNOV2018 !\REF: (RATE) TAMURA ET AL., COMBUST. FLAME 114(3-4) (1998) 502–514. 
    !\REF: (BRANCHING RATIO) LEHMAN ET AL. J. CHEM. PHYS. 137 (2012) 094312
    OHX+O2=HO2+O      1.008E+12      0.5      -482.0 
    !\SOURCE: KONNOV2018 !\REF: (RATE) TAMURA ET AL., COMBUST. FLAME 114(3-4) (1998) 502–514. 
    !\CMNT: REACTIVE QUENCHING CONSIDERED. BRANCHING RATIO IS ESTIMATED TO BE 0.5:0.5 TO REACTIVE QUENCHING OHX+H2O=H2O2+H
    OHX+H2O=H2O2+H    2.960E+12      0.5      -861.0 
    !\ENDRXN: \OHX+X 

!\ENDSUBMECH: \OHX


!\SUBMECH: \H2+O3+EXICITED 
!\SUBMECHSOURCE: KONNOV2018 !\REF: KONNOV. COMBUST. FLAME. 162 (2015) 3755-3772 ; KONNOV. COMBUST. FLAME. 203 (2019) 14-22

!\RXN: \O2+O+M=O3+M 
    O2+O+M=O3+M       6.530E+17     -1.5         0.0
        AR/0.0/    !\CMNT: REPLACED BY REACTION
        O2/0.95/ 
        O3/2.5/ 
        O/4.0/
        DUPLICATE
    O2+O+M=O3+M       1.330E+22     -3.3         0.0
        AR/0.0/    !\CMNT: REPLACED BY REACTION
        O2/1.07/ 
        O3/2.5/ 
        O/4.0/
        DUPLICATE
    O2+O+AR=O3+AR     4.290E+17     -1.5         0.0 
        DUPLICATE
    O2+O+AR=O3+AR     5.100E+21     -3.2         0.0 
        DUPLICATE
    !\ENDRXN: \O2+O+M=O3+M 
O3+O=O2+O2        4.820E+12      0.0      4094.0
O3+O=O2X+O2       1.440E+11      0.0      4094.0
O+O+M=O2X+M       7.000E+15     -1.0         0.0
    O/28.8/ 
    O2/8.0/ 
    N2/2.0/ 
    H2O/5.0/ 
    O3/8.0/ 
    !NO/2.0/ 
    !N/2.0/ 
    ! cH2O/5.0/   !\BOYANG
!\RXN: \O2X+M=O2+M 
    O2X+M=O2+M        1.800E+06      0.0       400.0
        O/0/         !\CMNT: REPLACED BY REACTION
        H/0/         !\CMNT: REPLACED BY REACTION
        AR/0.005/ 
        HE/0.005/ 
        N2/0.002/ 
        H2O/3.3/ 
        H2/2.5/ 
        CO2/0.01/ 
        CO/5.6/
        ! cH2O/3.3/    !\BOYANG
        ! cCO2/0.01/   !\BOYANG
    O2X+O=O2+O        7.800E+07      0.0         0.0
    O2X+H=O2+H        4.000E+13      0.0      5030.0 
    !\ENDRXN: \O2X+M=O2+M 
O2X+O+M=O+O2+M    3.600E+15      0.0         0.0 
  AR/0.63/ 
O2X+O3=O2+O2+O    3.130E+13      0.0      5644.0
OX+O2X=O+O2       6.030E+12      0.0         0.0
OX+O2=O+O2X       1.590E+13      0.0      -139.0 
!\RXN: \OX+M=O+M 
    OX+M=O+M          4.800E+11      0.0         0.0 
        O2/0/      !\CMNT: REPLACED BY REACTION
        N2/0/      !\CMNT: REPLACED BY REACTION
        O/10.0/ 
        H2O/3.0/
        ! cH2O/3.0/  !\BOYANG
    OX+O2=O+O2        2.810E+12      0.0      -139.0 
    OX+N2=O+N2        1.260E+13      0.0      -230.0 
    !\ENDRXN: \OX+M=O+M 
OX+O3=O2+O+O      7.230E+13      0.0         0.0 
OX+O3=O2+O2       7.230E+13      0.0         0.0 
H2+O2X=H+HO2      6.160E+05      2.335   31080.0
H+O2X=OH+O        3.500E+08      1.45     4508.0 
H+O2X+M=HO2+M     9.890E+09      2.03     3360.0
!\REF: MONGE-PALACIOS & SARATHY. PHYS. CHEM. CHEM. PHYS. 20 (2018) 4478-4489
HO2+OH=H2O+O2X    2.140E+06      1.65     2180.0 
OH+O2X=O+HO2      1.300E+13      0.0     34000.0 
O3+H=OH+O2        8.430E+13      0.0       934.0 
O3+OH=HO2+O2      1.000E+12      0.0      1870.0 
O3+HO2=OH+O2+O2   5.850E-04      4.57    -1377.0 
H+HO2=H2O+OX      2.500E+12      0.0       300.0 
OX+H2=OH+H        8.100E+13      0.0         0.0 
OX+H2O=OH+OH      1.000E+14      0.0       -71.0 
!\ENDSUBMECH: \H2+O3+EXICITED 


!\SUBMECH: \H2+CO

!\RXN: \CO+O(+M)=CO2(+M) !\BOYANG 
    !!\SOURCE: KEROMNES2013 !\REF: (HPL) TROE, J. PHYS. CHEM. 83 (1979) 114–126. X 0.76
    !!\SOURCE: KEROMNES2013 !\REF: (LPL) WESTMORELAND ET AL, AICHE JOURNAL 32(12) (1986) 1971–1979. X 0.87
    !CO+O(+M)=CO2(+M)    1.362E10 0.0 2.384E3
    !    H2/2.0/
    !    H2O/12.0/
    !    CO/1.75/
    !    CO2/3.6/
    !    HE/0.7/
    !    cH2O/12.0/
    !    cCO2/3.6/
    !    LOW/1.173E24 -2.79E0 4.191E3/ 

    !\BOYANG !\REF: (HPL) JASPER. J. PHYS. CHEM. A 119(28) (2015) 7339-7351
    !\SOURCE: KEROMNES2013 !\REF: (LPL) WESTMORELAND ET AL, AICHE JOURNAL 32(12) (1986) 1971–1979. X 0.87
    !\SOURCE: KEROMNES2013 !\REF: (3RD-BODY EFF.) ALLEN ET AL. COMBUST. FLAME 109(3) (1997) 449-470
    CO+O(+M)=CO2(+M)    1.06E13 -0.308 6.943E3
        H2/2.0/
        H2O/12.0/
        CO/1.75/
        CO2/3.6/
        HE/0.7/
        AR/0.87/
        ! cH2O/12.0/
        ! cCO2/3.6/
        LOW/1.173E24 -2.79E0 4.191E3/ 

    !!\SOURCE: NILSSON2016 !\REF: (HPL) JASPER. J. CHEM. PHYS. 139 (2013) 154313
    !!\SOURCE: NILSSON2016 !\REF: (LPL) TSANG & HAMPSON. J. PHYS. CHEM. REF. DATA 15(3) (1986) 1087-1279
    !!\SOURCE: NILSSON2016 !\REF: (3RD-BODY EFF.) ALLEN ET AL. COMBUST. FLAME 109(3) (1997) 449-470
    !CO+O(+M)=CO2(+M)    4.00E15 -0.960 9.837E3
    !   H2/2.5/
    !   H2O/12/
    !   CO/1.9/
    !   CO2/3.8/
    !   AR/0.87/
    !   LOW/6.14E14 0.0 3.000E3/

    !\ENDRXN: \CO+O(+M)=CO2(+M) 

!\RXN: \CO+O2=CO2+O 
    !!\SOURCE: KEROMNES2013 !\REF:TSANG AND HAMPSON, J. PHYS. CHEM. REF. DATA 15 (1986) 1087–1280.
    !CO+O2=CO2+O    1.119E12 0.0 4.77E4

    !\SOURCE: NILSSON2016 !\REF: THIELEN & ROTH. Ber.Bunsen-Ges.-Phys. Chem. Chem. Phys. 87(10) (1983) 920-925
    !\CMNT: (SUPPORTED BY) SHARIPOV & STARIK. J. PHYS. CHEM. A 115(10) (2011) 1795-1803
    CO+O2=CO2+O    5.06E13 0.0 6.319E4

    !\ENDRXN: \CO+O2=CO2+O 

!\RXN: \CO+OH=CO2+OH !\BOYANG 

    !\SOURCE: KEROMNES2013 !\REF: (BATHGAS = HE) JOSHI AND WANG IJCK (2006), 38, (1), 57-73.
    CO+OH=CO2+H    7.015E4 2.053 -3.557E2
        DUP
    CO+OH=CO2+H    5.757E12 -0.664 3.318E2
        DUP

    !\BOYANG !\REF: WANG ET AL. J. PHYS. CHEM. A 121(45) (2017) 8561-8568 
    !\CMNT: VALID FOR 1428-1685 K, UNCERTAINTY = 10%
    !\CMNT: IGNORED: valid range is too narrow.
    !CO+OH=CO2+H    1.90E12 0.0 5.4847E3
    
    !\BOYANG !\REF: RAS/GLA07a (1-50 bar, 300<T<2000K)
    !CO+OH=CO2+H                          8.000E+10   0.000       0   ! RAS/GLA07a (1 bar, 300<T<2000K)
    !                        PLOG /  0.9869 8.000E+10   0.000       0 / ! RAS/GLA07a (1 bar, 300<T<2000K)
    !                        PLOG /  0.9869 8.800E+05   1.770     954 / ! RAS/GLA07a (1 bar, 300<T<2000K)
    !                        PLOG /  2.9607 7.000E+10   0.000       0 / ! RAS/GLA07a (3 bar, 300<T<2000K)
    !                        PLOG /  2.9607 2.900E+05   1.900     397 / ! RAS/GLA07a (3 bar, 300<T<2000K)
    !                        PLOG /  9.8692 3.700E+12   0.000   12518 / ! RAS/GLA07a (10 bar, 300<T<2000K)
    !                        PLOG /  9.8692 9.300E+07   1.100       0 / ! RAS/GLA07a (10 bar, 300<T<2000K)
    !                        PLOG / 19.7385 2.900E+12   0.000   11922 / ! RAS/GLA07a (20 bar, 300<T<2000K)
    !                        PLOG / 19.7385 4.500E+07   1.200       0 / ! RAS/GLA07a (20 bar, 300<T<2000K)
    !                        PLOG / 49.3462 1.500E+12   0.000   13909 / ! RAS/GLA07a (50 bar, 150<T<2000K)
    !                        PLOG / 49.3462 5.800E+06   1.500       0 / ! RAS/GLA07a (50 bar, 150<T<2000K)


    !\BOYANG !\WARNING: This is biomolecular rate coefficient for OH(H2O)+CO=CO2+H2O+H reaction, (NOT the termolecular rate which is needed). Ref does not have rate for the preceeding OH+H2O=OH(H2O) reaction. 
    !\WARNING: This is a global reaction.
    !\CMNT: IGNORED: MAY NOT BE IMPORTANT AT COMBUSTION TEMPERATURES.
    !\REF: Zhang et al. J. Phys. Chem. A (2017) 121, 26, 4868-4880 
    !CO+OH+H2O=CO2+H+H2O    2.42381E3 2.31973 3.11047E3
    !    DUP
    !CO+OH+H2O=CO2+H+H2O    5.97405E1 2.62052 -8.6291E2
    !    DUP

    !\ENDRXN: \CO+OH=CO2+OH 

!\RXN: \HOCO=CO+OH !\BOYANG 

    !\CMNT: 3RD-BODY EFF. IGNORED BY CHEMKIN WHEN USING PLOG FORMALISM.
    !!\BOYANG !\CMNT: Bimolecular rates converted from unimolecular rates, using equations: A_new = A*82.057/P[atm], n_new = n+1, E_new = E 
    !!\REF: (BATHGAS = HE) Weston et al. J. Phys. Chem. A 117(5) (2013) 821-835
    !HOCO+M=CO+OH+M    3.775E+28  -4.120E+00  2.757E+04
    !   CO2/0.0/   !\CMNT: REPLACED BY REACTION
    !   cCO2/0.0/  !\CMNT: REPLACED BY REACTION
    !   PLOG/1.00E-03   1.272E-03   3.930E+00   8.768E+03/