THERMO ALL
  300.000  1000.000  5000.000

CH2COOH                 H   3O   2C   2     G     100.0    5000.0 1056.53      1
   7.96287361E0  1.18483255E-2 -5.28617377E-6  1.04461267E-9-7.61804659E-14    2
  -3.15436085E4   -1.5968753E1   2.92757881E0  1.79154902E-2  4.55150874E-6    3
 -1.68057687E-8 6.90261658E-12  -2.97542587E4   1.20332818E1                   4
 
!\SUBMECH: \FALSE-SPECIES !\BOYANG
!\BOYANG !\CMNT: Inert CO2 ( RXN[no]; 3RD-BODY-RXN[no]; THERM&TRAN[=CO2] )
iCO2              L 7/88C   1O   2    0    0G   200.000  6000.00  1000.00      1
+4.63651110E+00+2.74145690E-03-9.95897590E-07+1.60386660E-10-9.16198570E-15    2
-4.90249040E+04-1.93489550E+00+2.35681300E+00+8.98412990E-03-7.12206320E-06    3
+2.45730080E-09-1.42885480E-13-4.83719710E+04+9.90090350E+00-4.73281050E+04    4
!\BOYANG !\CMNT: Collider CO2 ( RXN[no]; 3RD-BODY-RXN[=CO2]; THERM&TRAN[=CO2]
cCO2              L 7/88C   1O   2    0    0G   200.000  6000.00  1000.00      1
+4.63651110E+00+2.74145690E-03-9.95897590E-07+1.60386660E-10-9.16198570E-15    2
-4.90249040E+04-1.93489550E+00+2.35681300E+00+8.98412990E-03-7.12206320E-06    3
+2.45730080E-09-1.42885480E-13-4.83719710E+04+9.90090350E+00-4.73281050E+04    4
!\BOYANG !\CMNT: Inert H2O ( RXN[no]; 3RD-BODY-RXN[no]; THERM&TRAN[=H2O] )
iH2O              L 5/89H   2O   10   00   0G   200.000  6000.00  1000.0       1
 0.26770389E+01 0.29731816E-02-0.77376889E-06 0.94433514E-10-0.42689991E-14    2
-0.29885894E+05 0.68825500E+01 0.41986352E+01-0.20364017E-02 0.65203416E-05    3
-0.54879269E-08 0.17719680E-11-0.30293726E+05-0.84900901E+00-0.29084817E+05    4
!\BOYANG !\CMNT: Collider H2O ( RXN[no]; 3RD-BODY-RXN[=H2O]; THERM&TRAN[=H2O]
cH2O              L 5/89H   2O   10   00   0G   200.000  6000.00  1000.0       1
 0.26770389E+01 0.29731816E-02-0.77376889E-06 0.94433514E-10-0.42689991E-14    2
-0.29885894E+05 0.68825500E+01 0.41986352E+01-0.20364017E-02 0.65203416E-05    3
-0.54879269E-08 0.17719680E-11-0.30293726E+05-0.84900901E+00-0.29084817E+05    4
!\ENDSUBMECH: \FALSE-SPECIES 

!\SUBMECH: \INERT
AR REF ELEMENT    L 6/88AR  1    0    0    0G   200.000  6000.00  1000.0       1
 2.50000000E+00 0.00000000E+00 0.00000000E+00 0.00000000E+00 0.00000000E+00    2
-7.45375000E+02 4.37967491E+00 2.50000000E+00 0.00000000E+00 0.00000000E+00    3
 0.00000000E+00 0.00000000E+00-7.45375000E+02 4.37967491E+00 0.00000000E+00    4
HE REF ELEMENT   g 5/97 HE  1    0    0    0G   200.000  6000.000 1000.0       1
 2.50000000E+00 0.00000000E+00 0.00000000E+00 0.00000000E+00 0.00000000E+00    2
-7.45375000E+02 9.28723974E-01 2.50000000E+00 0.00000000E+00 0.00000000E+00    3
 0.00000000E+00 0.00000000E+00-7.45375000E+02 9.28723974E-01 0.00000000E+00    4
N2  REF ELEMENT   8/02  N   2    0    0    0G   200.000  6000.00  1000.0       1
 2.95257637E+00 1.39690040E-03-4.92631603E-07 7.86010195E-11-4.60755204E-15    2
-9.23948688E+02 5.87188762E+00 3.53100528E+00-1.23660988E-04-5.02999433E-07    3
 2.43530612E-09-1.40881235E-12-1.04697628E+03 2.96747038E+00 0.00000000E+00    4
!\ENDSUBMECH: \INERT

!\SUBMECH: \H2+O2 
O2                ATcT  O  2.   0.   0.   0.G   200.000  6000.000  1000.0      1
 3.66096065E+00 6.56365811E-04-1.41149627E-07 2.05797935E-11-1.29913436E-15    2
-1.21597718E+03 3.41536279E+00 3.78245636E+00-2.99673416E-03 9.84730201E-06    3
-9.68129509E-09 3.24372837E-12-1.06394356E+03 3.65767573E+00 0.00000000E+00    4
O                 ATcT  O  1.   0.   0.   0.G   200.000  6000.000  1000.0      1
 2.54363697E+00-2.73162486E-05-4.19029520E-09 4.95481845E-12-4.79553694E-16    2 
 2.92260120E+04 4.92229457E+00 3.16826710E+00-3.27931884E-03 6.64306396E-06    3
-6.12806624E-09 2.11265971E-12 2.91222592E+04 2.05193346E+00 2.99687009E+04    4
OH                ATcT  O  1.H  1.   0.   0.G   200.000  6000.000  1000.0      1
 2.83853033E+00 1.10741289E-03-2.94000209E-07 4.20698729E-11-2.42289890E-15    2
 3.69780808E+03 5.84494652E+00 3.99198424E+00-2.40106655E-03 4.61664033E-06    3
-3.87916306E-09 1.36319502E-12 3.36889836E+03-1.03998477E-01 4.48615380E+03    4
H                 L 6/94H   10   00   00   0G   200.000  6000.00  1000.0       1
 0.25000000E+01 0.00000000E+00 0.00000000E+00 0.00000000E+00 0.00000000E+00    2
 0.25473660E+05-0.44668285E+00 0.25000000E+01 0.00000000E+00 0.00000000E+00    3
 0.00000000E+00 0.00000000E+00 0.25473660E+05-0.44668285E+00 0.26219035E+05    4
H2  REF ELEMENT   RUS 78H   20   00   00   0G   200.000  6000.00  1000.0       1
 2.93286575E+00 8.26608026E-04-1.46402364E-07 1.54100414E-11-6.88804800E-16    2
-8.13065581E+02-1.02432865E+00 2.34433112E+00 7.98052075E-03-1.94781510E-05    3
 2.01572094E-08-7.37611761E-12-9.17935173E+02 6.83010238E-01 0.00000000E+00    4
HO2               L 5/89H   1O   20   00   0G   200.000  5000.00  1000.0       1
 4.17228741E+00 1.88117627E-03-3.46277286E-07 1.94657549E-11 1.76256905E-16    2
 3.10206839E+01 2.95767672E+00 4.30179807E+00-4.74912097E-03 2.11582905E-05    3
-2.42763914E-08 9.29225225E-12 2.64018485E+02 3.71666220E+00 1.47886045E+03    4
H2O               L 5/89H   2O   10   00   0G   200.000  6000.00  1000.0       1
 0.26770389E+01 0.29731816E-02-0.77376889E-06 0.94433514E-10-0.42689991E-14    2
-0.29885894E+05 0.68825500E+01 0.41986352E+01-0.20364017E-02 0.65203416E-05    3
-0.54879269E-08 0.17719680E-11-0.30293726E+05-0.84900901E+00-0.29084817E+05    4
H2O2              L 2/93H   2O   20   00   0G   200.000  6000.00  1000.0       1
 4.57977305E+00 4.05326003E-03-1.29844730E-06 1.98211400E-10-1.13968792E-14    2
-1.80071775E+04 6.64970694E-01 4.31515149E+00-8.47390622E-04 1.76404323E-05    3
-2.26762944E-08 9.08950158E-12-1.77067437E+04 3.27373319E+00-1.63425145E+04    4
!\ENDSUBMECH: \H2+O2 

!\SUBMECH: \H2+O3+EXCITED
O2X singlet       ATcT  O  2.   0.   0.   0.G   200.000  6000.000  1000.0      1
 3.45852381E+00 1.04045351E-03-2.79664041E-07 3.11439672E-11-8.55656058E-16    2
 1.02229063E+04 4.15264119E+00 3.78535371E+00-3.21928540E-03 1.12323443E-05    3
-1.17254068E-08 4.17659585E-12 1.02922572E+04 3.27320239E+00 1.13558105E+04    4
OX singlet        ATcT  O  1.   0.   0.   0.G   200.000  6000.000  1000.0      1
 2.49368475E+00 1.37617903E-05-1.00401058E-08 2.76012182E-12-2.01597513E-16    2
 5.19986304E+04 4.65050950E+00 2.49993786E+00 1.71935346E-07-3.45215267E-10    3
 3.71342028E-13-1.70964494E-16 5.19965317E+04 4.61684555E+00 5.27418934E+04    4
OHX A 2Sigma+     ATcT  O  1.H  1.   0.   0.G   200.000  6000.000  1000.0      1
 2.75582920E+00 1.39848756E-03-4.19428493E-07 6.33453282E-11-3.56042218E-15    2
 5.09751756E+04 5.62581429E+00 3.46084428E+00 5.01872172E-04-2.00254474E-06    3
 3.18901984E-09-1.35451838E-12 5.07349466E+04 1.73976415E+00 5.17770741E+04    4
O3   L 5/90             O   3    0    0    0G   200.000  6000.000 1000.0       1
 1.23302914E+01-1.19324783E-02 7.98741278E-06-1.77194552E-09 1.26075824E-13    2
 1.26755831E+04-4.08823374E+01 3.40738221E+00 2.05379063E-03 1.38486052E-05    3
-2.23311542E-08 9.76073226E-12 1.58644979E+04 8.28247580E+00 1.70545228E+04    4
!\ENDSUBMECH: \H2+O3+EXCITED

!\SUBMECH: \CO 
CO                RUS 79C   1O   1    0    0G   200.000  6000.00  1000.00      1
+3.04848590E+00+1.35172810E-03-4.85794050E-07+7.88536440E-11-4.69807460E-15    2
-1.42661170E+04+6.01709770E+00+3.57953350E+00-6.10353690E-04+1.01681430E-06    3
+9.07005860E-10-9.04424490E-13-1.43440860E+04+3.50840930E+00-1.32936280E+04    4
CO2               L 7/88C   1O   2    0    0G   200.000  6000.00  1000.00      1
+4.63651110E+00+2.74145690E-03-9.95897590E-07+1.60386660E-10-9.16198570E-15    2
-4.90249040E+04-1.93489550E+00+2.35681300E+00+8.98412990E-03-7.12206320E-06    3
+2.45730080E-09-1.42885480E-13-4.83719710E+04+9.90090350E+00-4.73281050E+04    4
HOCO              T05/06H  1 C  1 O  2    0 G   200.000  6000.00   1000.00     1
+5.39206152E+00+4.11221455E-03-1.48194900E-06+2.39875460E-10-1.43903104E-14    2
-2.38606717E+04-2.23529091E+00+2.92207919E+00+7.62453859E-03+3.29884437E-06    3
-1.07135205E-08+5.11587057E-12-2.30281524E+04+1.12925886E+01-2.18076591E+04    4
HCO               T 5/03C  1 H  1 O  1    0 G   200.000  6000.00  1000.00      1
+3.92001542E+00+2.52279324E-03-6.71004164E-07+1.05615948E-10-7.43798261E-15    2
+3.65342928E+03+3.58077056E+00+4.23754610E+00-3.32075257E-03+1.40030264E-05    3
-1.34239995E-08+4.37416208E-12+3.87241185E+03+3.30834869E+00+5.08749163E+03    4
!\ENDSUBMECH: \CO   

CH4               G-8-99H   4C   1          G     200.0    6000.0  1000.0      1
   1.65326226E0  1.00263099E-2 -3.31661238E-6 5.36483138E-10-3.14696758E-14    2
  -1.00095936E4   9.90506283E0   5.14911468E0 -1.36622009E-2  4.91453921E-5    3
 -4.84246767E-8 1.66603441E-11  -1.02465983E4  -4.63848842E0                   4
CH3               IU0702H   3C   1          G     200.0    6000.0  1000.0      1
    2.9781206E0    5.797852E-3    -1.97558E-6   3.072979E-10 -1.7917416E-14    2
    1.6509513E4    4.7224799E0    3.6571797E0   2.1265979E-3   5.4583883E-6    3
  -6.6181003E-9  2.4657074E-12    1.6422716E4    1.6735354E0                   4
CH2               IU3-03H   2C   1          G     200.0    6000.0  1000.0      1
   3.14631886E0  3.03671259E-3 -9.96474439E-7  1.5048358E-10-8.57335515E-15    2
   4.60412605E4   4.72341711E0   3.71757846E0   1.2739126E-3  2.17347251E-6    3
   -3.488585E-9 1.65208866E-12   4.58723866E4   1.75297945E0                   4
CH2(S)            IU6-03H   2C   1          G     200.0    6000.0  1000.0      1
   3.13501686E0  2.89593926E-3  -8.1666809E-7 1.13572697E-10-6.36262835E-15    2
   5.05040504E4   4.06030621E0   4.19331325E0 -2.33105184E-3  8.15676451E-6    3
 -6.62985981E-9 1.93233199E-12   5.03662246E4  -7.4673431E-1                   4
C                 L-7-88C   1               G     200.0    6000.0  1000.0      1
     2.605583E0  -1.9593434E-4   1.0673722E-7  -1.642394E-11   8.187058E-16    2
    8.5411742E4    4.1923868E0    2.5542395E0  -3.2153772E-4   7.3379223E-7    3
 -7.3223487E-10  2.6652144E-13    8.5442681E4    4.5313085E0                   4
CH                IU3-03H   1C   1          G     200.0    6000.0  1000.0      1
    2.5209369E0   1.7653639E-3   -4.614766E-7  5.9289675E-11 -3.3474501E-15    2
    7.0946769E4    7.4051829E0    3.4897583E0    3.243216E-4  -1.6899751E-6    3
    3.162842E-9 -1.4061803E-12    7.0612646E4    2.0842841E0                   4
CHV               073003H   1C   1          G     300.0    5000.0  1000.0      1
     2.196223E0    2.340381E-3   -7.058201E-7   9.007582E-11   -3.85504E-15    2
    1.0419559E5     9.178373E0     3.200202E0    2.072875E-3   -5.134431E-6    3
     5.73389E-9  -1.955533E-12    1.0393714E5     3.331587E0                   4
CH3O2H            A-7-05H   4O   2C   1     G     200.0    6000.0  1000.0      1
   7.76538058E0  8.61499712E-3 -2.98006935E-6 4.68638071E-10-2.75339255E-14    2
  -1.82979984E4  -1.43992663E1   2.90540897E0  1.74994735E-2   5.2824363E-6    3
 -2.52827275E-8 1.34368212E-11  -1.68894632E4   1.13741987E1                   4
CH3O2                   H   3O   2C   1     G     300.0    5000.0  1374.0      1
   6.47970487E0   7.4440108E-3 -2.52348555E-6 3.89577296E-10-2.25182399E-14    2
  -1.56285441E3  -8.19477074E0   1.97339205E0   1.5354234E-2 -6.37314891E-6    3
 3.19930565E-10 2.82193915E-13   2.54278835E2   1.69194215E1                   4
CH2O2H                  H   3O   2C   1     G     300.0    5000.0  1410.0      1
   9.24697852E0  4.60845541E-3 -1.53501472E-6  2.3443483E-10-1.34573106E-14    2
   4.11529953E3  -2.11503248E1   2.88976454E0  2.09465776E-2 -1.75190772E-5    3
  7.27819787E-9-1.18912344E-12    6.1239062E3   1.23802076E1                   4
CH3OH             T06-02H   4O   1C   1     G     200.0    6000.0  1000.0      1
   3.52726795E0  1.03178783E-2 -3.62892944E-6 5.77448016E-10-3.42182632E-14    2
  -2.60028834E4   5.16758693E0   5.65851051E0 -1.62983419E-2  6.91938156E-5    3
 -7.58372926E-8  2.8042755E-11  -2.56119736E4 -8.97330508E-1                   4
CH3O              IU1-03H   3O   1C   1     G     200.0    6000.0  1000.0      1
   4.75779238E0  7.44142474E-3 -2.69705176E-6 4.38090504E-10-2.63537098E-14    2
    3.7811194E2  -1.96680028E0   3.71180502E0 -2.80463306E-3  3.76550971E-5    3
 -4.73072089E-8  1.8658842E-11    1.2956976E3   6.57240864E0                   4
CH2OH             IU2-03H   3O   1C   1     G     200.0    6000.0  1000.0      1
    5.0931437E0   5.9476126E-3  -2.0649746E-6 3.23008173E-10-1.88125902E-14    2
   -4.0340964E3  -1.84691493E0   4.47834367E0  -1.3507031E-3   2.7848498E-5    3
  -3.6486906E-8  1.4790745E-11   -3.5007289E3     3.309135E0                   4
CH2O              T-5-11H   2O   1C   1     G     200.0    6000.0  1000.0      1
   3.16952665E0   6.1932056E-3 -2.25056366E-6  3.6597566E-10-2.20149458E-14    2
  -1.45486831E4   6.04207898E0   4.79372312E0 -9.90833322E-3   3.7321999E-5    3
 -3.79285237E-8 1.31772641E-11  -1.43791953E4  6.02798058E-1                   4
HCOH              -MAR94H   2O   1C   1     G     300.0    5000.0  1398.0      1
   9.18749272E0  1.52011152E-3 -6.27603516E-7 1.09727989E-10-6.89655128E-15    2
   7.81364593E3  -2.73434214E1  -2.82157421E0  3.57331702E-2  -3.8086158E-5    3
  1.86205951E-8-3.45957838E-12   1.12956672E4   3.48487757E1                   4

!\BOYANG !\CMNT: singet HCOH
!\REF: Xiong et al. Combustion and Flame 161(4), 2014, 885-897. https://dx.doi.org/10.1016/j.combustflame.2013.10.013
HCOH(S)                 C   1H   2O   1    0G   298.150  6000.000 1000.00      1
 0.57648468E+01 0.21295433E-02-0.19747641E-06-0.51074096E-10 0.74327861E-14    2
 0.10621689E+05-0.77241540E+01 0.32130404E+01 0.32250737E-02 0.24648079E-05    3
 0.15449875E-08-0.27946393E-11 0.11899702E+05 0.76449280E+01                   4
!\BOYANG !\CMNT: singlet CHCOOH, sturucture: **CH-C(OH)=O
!\REF: Xiong et al. Combustion and Flame 161(4), 2014, 885-897. https://dx.doi.org/10.1016/j.combustflame.2013.10.013
CHCOOH(S)               C   2H   2O   2    0G   298.150  6000.000 1000.00      1
 0.10868741E+02 0.26203147E-02-0.24901604E-06-0.62591002E-10 0.92224532E-14    2
-0.14624359E+04-0.33089882E+02 0.41262689E+01 0.12656583E-01 0.11904198E-05    3
-0.60803846E-08 0.12937819E-11 0.10296272E+04 0.44142780E+01                   4
!\BOYANG !\CMNT: triplet CHCOOH, sturucture: **CH-C(OH)=O
!\REF: Xiong et al. Combustion and Flame 161(4), 2014, 885-897. https://dx.doi.org/10.1016/j.combustflame.2013.10.013
CHCOOH                  C   2H   2O   2    0G   298.150  6000.000 1000.00      1
 0.11283872E+02 0.24023736E-02-0.22897335E-06-0.56822522E-10 0.83862386E-14    2
-0.32172688E+04-0.35290779E+02 0.49827542E+01 0.12289023E-01 0.64905817E-06    3
-0.62683685E-08 0.17563685E-11-0.94886255E+03-0.45634079E+00                   4
!\BOYANG !\CMNT: *O-CH=C=O
!\REF: Xiong et al. Combustion and Flame 161(4), 2014, 885-897. https://dx.doi.org/10.1016/j.combustflame.2013.10.013
OCHCO                   C   2H   1O   2    0G   298.150  6000.000 1000.00      1
 0.92834883E+01 0.19757545E-02-0.19694066E-06-0.47171229E-10 0.71130922E-14    2
-0.11869043E+05-0.23986715E+02 0.48888373E+01 0.67007258E-02 0.20502216E-05    3
-0.11378003E-08-0.14797383E-11-0.10015904E+05 0.12571659E+01                   4
!\BOYANG !\CMNT: triplet **C=C=O
!\REF: Xiong et al. Combustion and Flame 161(4), 2014, 885-897. https://dx.doi.org/10.1016/j.combustflame.2013.10.013
C2O                     C   2H   0O   1    0G   298.150  6000.000 1000.00      1
 0.62454696E+01 0.69419044E-03-0.74908449E-07-0.15617551E-10 0.24656352E-14    2
 0.43037328E+05-0.10246604E+02 0.42445064E+01 0.31472517E-02 0.57266539E-06    3
-0.66609979E-09-0.44672661E-12 0.43848359E+05 0.11278381E+01                   4


HO2CHO            -THERMH   2O   3C   1     G     300.0    5000.0  1378.0      1
   9.87503878E0  4.64663708E-3 -1.67230522E-6 2.68624413E-10-1.59595232E-14    2
  -3.80502496E4  -2.24939155E1   2.42464726E0   2.1970638E-2 -1.68705546E-5    3
  6.25612194E-9-9.11645843E-13  -3.54828006E4   1.75027796E1                   4
HOCH2O            -THERMH   3O   2C   1     G     300.0    5000.0  1452.0      1
   6.39521515E0  7.43673043E-3 -2.50422354E-6 3.84879712E-10-2.21778689E-14    2
   -2.4110884E4  -6.63865583E0   4.11183145E0  7.53850697E-3   3.7733737E-6    3
 -5.38746005E-9 1.45615887E-12  -2.28023001E4   7.46807254E0                   4
O2CHO             -THERMH   1O   3C   1     G     300.0    5000.0  1368.0      1
   7.24075139E0  4.63312951E-3 -1.63693995E-6 2.59706693E-10-1.52964699E-14    2
  -1.87027618E4  -6.49547212E0   3.96059309E0  1.06002279E-2 -5.25713351E-6    3
  1.01716726E-9-2.87487602E-14  -1.73599383E4   1.17807483E1                   4
HOCHO             L-8-88H   2O   2C   1     G     200.0    6000.0  1000.0      1
    4.6138316E0   6.4496364E-3  -2.2908251E-6  3.6716047E-10 -2.1873675E-14    2
    -4.751485E4   8.4788383E-1    3.8983616E0  -3.5587795E-3   3.5520538E-5    3
  -4.3849959E-8  1.7107769E-11   -4.6770609E4    7.3495397E0                   4
OCHO              ATCT-AH   1O   2C   1     G     200.0    6000.0  1000.0      1
   4.14394211E0  5.59738818E-3 -1.99794019E-6 3.16179193E-10-1.85614483E-14    2
  -1.72459887E4   5.07778617E0   4.68825921E0 -4.14871834E-3   2.5506601E-5    3
   -2.844739E-8 1.04422559E-11  -1.69867041E4    4.2842648E0                   4
C2H6              G-8-88H   6C   2          G     200.0    6000.0  1000.0      1
   4.04666411E0  1.53538802E-2 -5.47039485E-6 8.77826544E-10-5.23167531E-14    2
  -1.24473499E4 -9.68698313E-1   4.29142572E0 -5.50154901E-3  5.99438458E-5    3
 -7.08466469E-8 2.68685836E-11  -1.15222056E4   2.66678994E0                   4
C2H5              -THERMH   5C   2          G     300.0    5000.0  1387.0      1
    5.8878439E0  1.03076793E-2 -3.46844396E-6 5.32499257E-10-3.06512651E-14    2
   1.15065499E4  -8.49651771E0   1.32730217E0  1.76656753E-2 -6.14926558E-6    3
-3.01143466E-10 4.38617775E-13   1.34284028E4   1.71789216E1                   4
C2H5O2H                 H   6O   2C   2     G     300.0    5000.0  1390.0      1
   1.04823538E1  1.34779879E-2 -4.62179078E-6 7.18618519E-10-4.17307436E-14    2
  -2.46578171E4  -2.84294243E1   1.83755328E0  3.38053586E-2  -2.3754814E-5    3
  9.31974865E-9-1.58003428E-12  -2.15814086E4   1.80977584E1                   4
C2H5O2                  H   5O   2C   2     G     300.0    5000.0  1389.0      1
    9.5028257E0  1.20429839E-2 -4.09491581E-6 6.33049241E-10-3.66133788E-14    2
  -7.37069391E3   -2.2171713E1   3.90351912E0  2.22599212E-2 -1.01610079E-5    3
  1.71709751E-9 1.88166738E-14  -5.09654081E3    8.9872275E0                   4
C2H4                    H   4C   2          G     300.0    5000.0  1392.0      1
   5.07061289E0  9.11140768E-3 -3.10506692E-6 4.80733851E-10-2.78321396E-14    2
   3.66391217E3  -6.64501414E0  4.81118223E-1   1.8377806E-2 -9.99633565E-6    3
  2.73211039E-9-3.01837289E-13   5.44386648E3   1.85867157E1                   4
C2H3                    H   3C   2          G     300.0    5000.0  1400.0      1
   4.99675415E0  6.55838271E-3 -2.20921909E-6 3.39300272E-10-1.95316926E-14    2
   3.34604382E4  -3.01451097E0   1.25545094E0  1.57481597E-2 -1.12218328E-5    3
  4.50915682E-9-7.74861577E-13   3.47435574E4   1.69664043E1                   4
CHOCHO                  H   2O   2C   2     G     300.0    5000.0  1386.0      1
   9.75438561E0  4.97645947E-3 -1.74410483E-6 2.75586994E-10-1.61969892E-14    2
  -2.95832896E4  -2.61878329E1    1.8810512E0  2.36386368E-2 -1.83443295E-5    3
  6.84842963E-9-9.92733674E-13   -2.6928019E4   1.59154793E1                   4
C2H3OOH           -THERMH   4O   2C   2     G     300.0    5000.0  1397.0      1
   1.15749951E1  8.09909174E-3 -2.81808668E-6 4.42697954E-10-2.58998042E-14    2
  -8.84852664E3  -3.43859117E1   1.35644398E0  3.37002447E-2   -2.759885E-5    3
  1.14222854E-8-1.89488886E-12  -5.49996692E3   1.98354466E1                   4
C2H3OO                  H   3O   2C   2     G    298.15    2000.0  1000.0      1
   6.04483828E0  1.45511127E-2 -7.50974622E-6   1.8348828E-9-1.66689681E-13    2
   1.01699244E4  -3.71144913E0   1.09784776E0  2.95333237E-2  -2.2774436E-5    3
  7.20559155E-9-3.07929092E-13   1.13996101E4   2.13563583E1                   4
CHCHO                   H   2O   1C   2     G    298.15    2000.0  1000.0      1
    4.9263291E0  9.71712147E-3  -5.5485598E-6  1.53068537E-9-1.64742462E-13    2
   2.89499494E4  5.27874677E-1   2.33256751E0  1.62952986E-2 -9.72052177E-6    3
 5.15124155E-10 1.03836514E-12   2.96585452E4   1.39904923E1                   4
C2H2              G-1-91H   2C   2          G     200.0    6000.0  1000.0      1
   4.65878489E0  4.88396667E-3 -1.60828888E-6 2.46974544E-10-1.38605959E-14    2
   2.57594042E4  -3.99838194E0  8.08679682E-1  2.33615762E-2 -3.55172234E-5    3
  2.80152958E-8-8.50075165E-12   2.64289808E4   1.39396761E1                   4
C2H               T-5-10H   1C   2          G     200.0    6000.0  1000.0      1
   3.66270248E0  3.82492252E-3   -1.366325E-6  2.1345504E-10-1.23216848E-14    2
    6.7168379E4   3.92205792E0   2.89867676E0  1.32988489E-2 -2.80733327E-5    3
  2.89484755E-8-1.07502351E-11    6.7061605E4   6.18547632E0                   4
H2CC              L12-89H   2C   2          G     200.0    6000.0  1000.0      1
     4.278034E0   4.7562804E-3  -1.6301009E-6  2.5462806E-10 -1.4886379E-14    2
    4.8316688E4   6.4023701E-1    3.2815483E0   6.9764791E-3  -2.3855244E-6    3
  -1.2104432E-9  9.8189545E-13    4.8621794E4     5.920391E0                   4
C2H5OH                  H   6O   1C   2     G     300.0    5000.0  1402.0      1
   8.14483865E0  1.28314052E-2 -4.29052743E-6 6.55971721E-10-3.76506611E-14    2
  -3.24005526E4  -1.86241126E1  2.15805861E-1  2.95228396E-2 -1.68271048E-5    3
  4.49484797E-9-4.02451543E-13  -2.94851823E4   2.45725052E1                   4
C2H5O                   H   5O   1C   2     G     300.0    5000.0  1467.0      1
   8.19120635E0  1.10391986E-2 -3.75270536E-6 5.80275784E-10-3.35735146E-14    2
  -5.66847208E3  -1.90131344E1   2.90353584E0  1.77256708E-2 -2.69624757E-6    3
 -3.45830533E-9 1.25224784E-12   -3.2893029E3   1.13545591E1                   4
PC2H4OH                 H   5O   1C   2     G     300.0    5000.0  1395.0      1
    8.0675015E0  1.06143554E-2  -3.5799936E-6  5.5036376E-10-3.17051769E-14    2
  -6.92747939E3  -1.53833428E1   2.59479867E0  2.27100669E-2 -1.39473846E-5    3
  4.70095591E-9-6.90044236E-13  -4.91486975E3   1.43240718E1                   4
SC2H4OH                 H   5O   1C   2     G     300.0    5000.0  1385.0      1
   8.15007136E0  1.02549305E-2 -3.40137764E-6 5.17509965E-10-2.96128942E-14    2
  -1.05014386E4  -1.73134615E1   1.46281093E0  2.39193995E-2 -1.30667185E-5    3
  3.10615465E-9-1.85896007E-13  -8.00790323E3   1.92547092E1                   4
O2C2H4OH          -THERMH   5O   3C   2     G     300.0    5000.0  1506.0      1
   1.27503881E1  1.11514325E-2 -3.83473891E-6 5.98155829E-10-3.48372108E-14    2
  -2.52770876E4  -3.54317608E1     7.040098E0  1.59564166E-2  2.21097416E-6    3
 -7.05197355E-9 2.08266026E-12  -2.24524432E4  -1.75361758E0                   4
C2H4O2H                 H   5O   2C   2     G     300.0    5000.0  1389.0      1
   1.00590614E1  1.13378955E-2 -3.89403387E-6 6.06090687E-10-3.52212353E-14    2
   4.24048653E2  -2.32086536E1   2.75788364E0  2.88271987E-2 -2.08302264E-5    3
  8.47401397E-9 -1.4861761E-12   3.00153893E3   1.59921711E1                   4
C2H4O1-2          L-8-88H   4O   1C   2     G     200.0    6000.0  1000.0      1
    5.4887641E0    1.204619E-2  -4.3336931E-6  7.0028311E-10 -4.1949088E-14    2
   -9.1804251E3   -7.0799605E0    3.7590532E0   -9.441218E-3   8.0309721E-5    3
  -1.0080788E-7  4.0039921E-11   -7.5608143E3    7.8497475E0                   4
C2H3O1-2          A-1-05H   3O   1C   2     G     200.0    6000.0  1000.0      1
   5.60158035E0  9.17613962E-3 -3.28028902E-6 5.27903888E-10-3.15362241E-14    2
   1.71446252E4  -5.47228512E0   3.58349017E0 -6.02275805E-3  6.32426867E-5    3
 -8.18540707E-8 3.30444505E-11   1.85681353E4   9.59725926E0                   4
CH3CHO            L-8-88H   4O   1C   2     G     200.0    6000.0  1000.0      1
    5.4041108E0   1.1723059E-2  -4.2263137E-6  6.8372451E-10 -4.0984863E-14    2
   -2.2593122E4   -3.4807917E0    4.7294595E0  -3.1932858E-3   4.7534921E-5    3
  -5.7458611E-8  2.1931112E-11   -2.1572878E4    4.1030159E0                   4
CH3CO             IU2-03H   3O   1C   2     G     200.0    6000.0  1000.0      1
    5.3137165E0   9.1737793E-3  -3.3220386E-6  5.3947456E-10 -3.2452368E-14    2
   -3.6450414E3   -1.6757558E0    4.0358705E0   8.7729487E-4    3.071001E-5    3
  -3.9247565E-8  1.5296869E-11   -2.6820738E3    7.8617682E0                   4
CH2CHO            T03-10H   3O   1C   2     G     200.0    6000.0  1000.0      1
   6.53928338E0  7.80238629E-3 -2.76413612E-6 4.42098906E-10 -2.6295429E-14    2
  -1.18858659E3  -8.72091393E0     2.795026E0  1.01099472E-2  1.61750645E-5    3
 -3.10303145E-8 1.39436139E-11   1.62944975E2   1.23646657E1                   4
O2CH2CHO          BOZ-03H   3O   3C   2     G     300.0    5000.0  1393.0      1
   1.11807543E1  9.14479256E-3 -3.15089833E-6 4.91944238E-10 -2.8663918E-14    2
  -1.55790331E4   -2.8789274E1  -1.29465843E0  4.44936393E-2 -4.26577074E-5    3
   2.0739195E-8-3.96828771E-12  -1.18275628E4   3.60778797E1                   4
HO2CH2CO          BOZ-03H   3O   3C   2     G     300.0    5000.0  1386.0      1
   1.04146322E1  1.12680116E-2 -5.17494839E-6  1.00333285E-9-6.68165911E-14    2
  -1.40955672E4    -2.278944E1   2.22681686E0   3.5678138E-2 -3.26401909E-5    3
  1.47651988E-8 -2.6479438E-12  -1.18735095E4   1.91581197E1                   4
C2H3OH            -THERMH   4O   1C   2     G     300.0    5000.0  1410.0      1
   8.32598158E0  8.03387281E-3 -2.63928405E-6 3.98410726E-10-2.26551155E-14    2
  -1.83221436E4  -2.02080305E1  -1.2797226E-1  3.38506073E-2 -3.30644935E-5    3
  1.64858739E-8-3.19935455E-12  -1.59914544E4   2.30438601E1                   4
C2H2OH                  H   3O   1C   2     G     300.0    5000.0  1401.0      1
   8.20268447E0  5.92989165E-3 -1.99194448E-6 3.05794341E-10-1.76114732E-14    2
   1.24881328E4  -1.89670436E1  6.41642616E-1  2.61903633E-2  -2.3038537E-5    3
  1.02804704E-8-1.81971416E-12   1.48276951E4   2.06750999E1                   4
CH2CO                   H   2O   1C   2     G     300.0    5000.0  1000.0      1
   5.35869367E0  6.95641586E-3 -2.64802637E-6 4.65067592E-10 -3.0864182E-14    2
  -7.90294013E3  -3.98525731E0   1.81422511E0   1.9900859E-2 -2.21416008E-5    3
  1.45028521E-8-3.98877068E-12  -7.05394926E3   1.36079359E1                   4
HCCO              T-4-09H   1O   1C   2     G     200.0    6000.0  1000.0      1
   5.91479333E0   3.7140873E-3  -1.3013701E-6 2.06473345E-10-1.21476759E-14    2
   1.93596301E4  -5.50567269E0   1.87607969E0  2.21205418E-2 -3.58869325E-5    3
  3.05402541E-8-1.01281069E-11    2.0163384E4    1.3696829E1                   4
HCCOH             T12-09H   2O   1C   2     G     200.0    6000.0  1000.0      1
   6.37509678E0  5.49429011E-3 -1.88136576E-6 2.93803536E-10-1.71771901E-14    2
   8.93277676E3  -8.24498007E0   2.05541154E0  2.52003372E-2 -3.80821654E-5    3
  3.09890632E-8-9.89799902E-12   9.76872113E3   1.22271534E1                   4
CH3CO3H           -THERMH   4O   3C   2     G     300.0    5000.0  1391.0      1
   1.25060485E1  9.47789695E-3 -3.30402246E-6 5.19630793E-10-3.04233568E-14    2
  -4.59856703E4  -3.79195947E1   2.24135876E0  3.37963514E-2 -2.53887482E-5    3
  9.67583587E-9-1.49266157E-12  -4.24677831E4   1.70668133E1                   4
CH3CO3            -THERMH   3O   3C   2     G     300.0    5000.0  1391.0      1
   1.12522498E1  8.33652672E-3  -2.8901453E-6 4.52781734E-10-2.64354456E-14    2
  -2.60238584E4  -2.96370457E1   3.60373432E0  2.70080341E-2 -2.08293438E-5    3
  8.50541104E-9 -1.4384611E-12  -2.34205171E4   1.12014914E1                   4
CH3CO2            -THERMH   3O   2C   2     G     300.0    5000.0  1395.0      1
   8.54059736E0  8.32951214E-3  -2.8472201E-6 4.41927196E-10-2.56373394E-14    2
  -2.97290678E4  -2.03883545E1   1.37440768E0  2.49115604E-2 -1.74308894E-5    3
  6.24799508E-9-9.09516835E-13   -2.7233015E4   1.81405454E1                   4
CH3OCO                  H   3O   2C   2     G     298.0    3000.0  1000.0      1
   3.36304128E0  1.87670995E-2 -1.03048118E-5  2.67955225E-9 -2.6952476E-13    2
  -2.08317053E4   1.09017923E1   4.20427121E0  8.77414983E-3  1.52020481E-5    3
  -2.1722388E-8 7.77727542E-12   -2.0687622E4   8.45258172E0                   4
C3H8                    H   8C   3          G     300.0    5000.0  1390.0      1
    9.1554131E0  1.72574139E-2 -5.85614868E-6 9.04190155E-10-5.22523772E-14    2
  -1.75762439E4   -2.7741851E1   2.4087847E-1  3.39548599E-2 -1.60930874E-5    3
  2.83480628E-9 2.78195172E-14  -1.40362853E4     2.165008E1                   4
IC3H7                   H   7C   3          G     298.0    6000.0  1000.0      1
   6.70775549E0  1.74048076E-2 -6.07615926E-6 9.60084351E-10 -5.6565649E-14    2
   7.55377821E3  -1.03686516E1 -8.97467137E-1  4.15744022E-2 -4.94778349E-5    3
  4.56493655E-8-1.79085437E-11   9.93950407E3   2.92641758E1                   4
NC3H7                   H   7C   3          G     298.0    6000.0  1000.0      1
   7.48614243E0  1.65769478E-2 -5.74876481E-6 9.04103694E-10-5.30867231E-14    2
   8.93710008E3  -1.42595379E1  -2.20120865E0  5.29641653E-2 -7.23640506E-5    3
   6.3699694E-8-2.29332581E-11   1.15130744E4   3.43669174E1                   4
NC3H7O2H                H   8O   2C   3     G     300.0    5000.0  1392.0      1
   1.42246236E1  1.74340964E-2 -5.97063522E-6 9.27753851E-10-5.38585168E-14    2
  -2.88159737E4  -4.74357865E1   1.35815897E0  4.56683952E-2 -2.91646368E-5    3
  9.41701313E-9-1.22337394E-12  -2.41528416E4   2.23322825E1                   4
NC3H7O2                 H   7O   2C   3     G     300.0    5000.0  1390.0      1